Program Version,EnergyPlus, Version 9.1.0-fafb9d5652, YMD=2020.04.08 17:02
! <Version>, Version ID
 Version, 9.1
! <Timesteps per Hour>, #TimeSteps, Minutes per TimeStep {minutes}
 Timesteps per Hour,  4, 15
! <System Convergence Limits>, Minimum System TimeStep {minutes}, Max HVAC Iterations, Minimum Plant Iterations, Maximum Plant Iterations
 System Convergence Limits, 1, 25, 2, 8
! <Simulation Control>, Do Zone Sizing, Do System Sizing, Do Plant Sizing, Do Design Days, Do Weather Simulation, Do HVAC Sizing Simulation
 Simulation Control, Yes, Yes, Yes, Yes, Yes, No
! <Output Reporting Tolerances>, Tolerance for Time Heating Setpoint Not Met, Tolerance for Zone Cooling Setpoint Not Met Time
 Output Reporting Tolerances, 0.200, 0.200, 
! <Site:GroundTemperature:BuildingSurface>,Jan{C},Feb{C},Mar{C},Apr{C},May{C},Jun{C},Jul{C},Aug{C},Sep{C},Oct{C},Nov{C},Dec{C}
 Site:GroundTemperature:BuildingSurface,  18.00,  18.00,  18.00,  18.00,  18.00,  18.00,  18.00,  18.00,  18.00,  18.00,  18.00,  18.00
! <Site:GroundTemperature:FCfactorMethod>,Jan{C},Feb{C},Mar{C},Apr{C},May{C},Jun{C},Jul{C},Aug{C},Sep{C},Oct{C},Nov{C},Dec{C}
 Site:GroundTemperature:FCfactorMethod,   0.36,   2.33,   6.17,   9.79,  16.66,  20.28,  21.27,  19.44,  15.20,   9.93,   4.73,   1.30
! <Site:GroundTemperature:Shallow>,Jan{C},Feb{C},Mar{C},Apr{C},May{C},Jun{C},Jul{C},Aug{C},Sep{C},Oct{C},Nov{C},Dec{C}
 Site:GroundTemperature:Shallow,  13.00,  13.00,  13.00,  13.00,  13.00,  13.00,  13.00,  13.00,  13.00,  13.00,  13.00,  13.00
! <Site:GroundTemperature:Deep>,Jan{C},Feb{C},Mar{C},Apr{C},May{C},Jun{C},Jul{C},Aug{C},Sep{C},Oct{C},Nov{C},Dec{C}
 Site:GroundTemperature:Deep,  16.00,  16.00,  16.00,  16.00,  16.00,  16.00,  16.00,  16.00,  16.00,  16.00,  16.00,  16.00
! <Site:GroundReflectance>,Jan{dimensionless},Feb{dimensionless},Mar{dimensionless},Apr{dimensionless},May{dimensionless},Jun{dimensionless},Jul{dimensionless},Aug{dimensionless},Sep{dimensionless},Oct{dimensionless},Nov{dimensionless},Dec{dimensionless}
 Site:GroundReflectance,  0.20,  0.20,  0.20,  0.20,  0.20,  0.20,  0.20,  0.20,  0.20,  0.20,  0.20,  0.20
! <Site:GroundReflectance:SnowModifier>, Normal, Daylighting {dimensionless}
 Site:GroundReflectance:SnowModifier,   1.000,   1.000
! <Site:GroundReflectance:Snow>,Jan{dimensionless},Feb{dimensionless},Mar{dimensionless},Apr{dimensionless},May{dimensionless},Jun{dimensionless},Jul{dimensionless},Aug{dimensionless},Sep{dimensionless},Oct{dimensionless},Nov{dimensionless},Dec{dimensionless}
 Site:GroundReflectance:Snow,  0.20,  0.20,  0.20,  0.20,  0.20,  0.20,  0.20,  0.20,  0.20,  0.20,  0.20,  0.20
! <Site:GroundReflectance:Snow:Daylighting>,Jan{dimensionless},Feb{dimensionless},Mar{dimensionless},Apr{dimensionless},May{dimensionless},Jun{dimensionless},Jul{dimensionless},Aug{dimensionless},Sep{dimensionless},Oct{dimensionless},Nov{dimensionless},Dec{dimensionless}
 Site:GroundReflectance:Snow:Daylighting,  0.20,  0.20,  0.20,  0.20,  0.20,  0.20,  0.20,  0.20,  0.20,  0.20,  0.20,  0.20
! <Environment:Weather Station>,Wind Sensor Height Above Ground {m},Wind Speed Profile Exponent {},Wind Speed Profile Boundary Layer Thickness {m},Air Temperature Sensor Height Above Ground {m},Wind Speed Modifier Coefficient-Internal,Temperature Modifier Coefficient-Internal
Environment:Weather Station,10.000,0.140,270.000,1.500,1.586,9.750E-003
! <Site:Location>, Location Name, Latitude {N+/S- Deg}, Longitude {E+/W- Deg},  Time Zone Number {GMT+/-}, Elevation {m},  Standard Pressure at Elevation {Pa}, Standard RhoAir at Elevation
Site:Location,Denver Intl Ap CO USA TMY3 WMO#=725650,39.83,-104.65,-7.00,1650.00,83011,0.9866
! <Site Water Mains Temperature Information>,Calculation Method{},Water Mains Temperature Schedule Name{},Annual Average Outdoor Air Temperature{C},Maximum Difference In Monthly Average Outdoor Air Temperatures{deltaC},Fixed Default Water Mains Temperature{C}
Site Water Mains Temperature Information,Correlation,NA,0.00,10.00,NA
! <Building Information>, Building Name,North Axis {deg},Terrain,  Loads Convergence Tolerance Value,Temperature Convergence Tolerance Value,  Solar Distribution,Maximum Number of Warmup Days,Minimum Number of Warmup Days
 Building Information,Project Name,0.000,Suburbs,0.10000,0.50000,FullExterior,25,6
! <Inside Convection Algorithm>, Algorithm {Simple | TARP | CeilingDiffuser | AdaptiveConvectionAlgorithm}
Inside Convection Algorithm,TARP
! <Outside Convection Algorithm>, Algorithm {SimpleCombined | TARP | MoWitt | DOE-2 | AdaptiveConvectionAlgorithm}
Outside Convection Algorithm,DOE-2
! <Sky Radiance Distribution>, Value {Anisotropic}
Sky Radiance Distribution,Anisotropic
! <Zone Air Solution Algorithm>, Value {ThirdOrderBackwardDifference | AnalyticalSolution | EulerMethod}
 Zone Air Solution Algorithm, ThirdOrderBackwardDifference
! <Zone Air Carbon Dioxide Balance Simulation>, Simulation {Yes/No}, Carbon Dioxide Concentration
 Zone Air Carbon Dioxide Balance Simulation, No,N/A
! <Zone Air Generic Contaminant Balance Simulation>, Simulation {Yes/No}, Generic Contaminant Concentration
 Zone Air Generic Contaminant Balance Simulation, No,N/A
! <Zone Air Mass Flow Balance Simulation>, Enforce Mass Balance, Adjust Zone Mixing, Adjust Zone Infiltration {AddInfiltration | AdjustInfiltration | None}, Infiltration Zones {MixingSourceZonesOnly | AllZones}
 Zone Air Mass Flow Balance Simulation, No,N/A,N/A,N/A
! <HVACSystemRootFindingAlgorithm>, Value {RegulaFalsi | Bisection | BisectionThenRegulaFalsi | RegulaFalsiThenBisection}
 HVACSystemRootFindingAlgorithm, RegulaFalsi
! <Environment:Site Atmospheric Variation>,Wind Speed Profile Exponent {},Wind Speed Profile Boundary Layer Thickness {m},Air Temperature Gradient Coefficient {K/m}
Environment:Site Atmospheric Variation,0.220,370.000,6.500000E-003
! <Surface Geometry>,Starting Corner,Vertex Input Direction,Coordinate System,Daylight Reference Point Coordinate System,Rectangular (Simple) Surface Coordinate System
 Surface Geometry,UpperLeftCorner,Counterclockwise,RelativeCoordinateSystem,RelativeCoordinateSystem,RelativeToZoneOrigin
! <Surface Heat Transfer Algorithm>, Value {CTF - ConductionTransferFunction | EMPD - MoisturePenetrationDepthConductionTransferFunction | CondFD - ConductionFiniteDifference | HAMT - CombinedHeatAndMoistureFiniteElement} - Description,Inside Surface Max Temperature Limit{C}, Surface Convection Coefficient Lower Limit {W/m2-K}, Surface Convection Coefficient Upper Limit {W/m2-K}
Surface Heat Transfer Algorithm, CTF - ConductionTransferFunction,200,0.10,1000.0
! <Shading Summary>, Number of Fixed Detached Shades, Number of Building Detached Shades, Number of Attached Shades
 Shading Summary,0,0,0
! <Zone Summary>, Number of Zones, Number of Zone Surfaces, Number of SubSurfaces
 Zone Summary,4,24,0
! <Zone Information>,Zone Name,North Axis {deg},Origin X-Coordinate {m},Origin Y-Coordinate {m},Origin Z-Coordinate {m},Centroid X-Coordinate {m},Centroid Y-Coordinate {m},Centroid Z-Coordinate {m},Type,Zone Multiplier,Zone List Multiplier,Minimum X {m},Maximum X {m},Minimum Y {m},Maximum Y {m},Minimum Z {m},Maximum Z {m},Ceiling Height {m},Volume {m3},Zone Inside Convection Algorithm {Simple-Detailed-CeilingDiffuser-TrombeWall},Zone Outside Convection Algorithm {Simple-Detailed-Tarp-MoWitt-DOE-2-BLAST}, Floor Area {m2},Exterior Gross Wall Area {m2},Exterior Net Wall Area {m2},Exterior Window Area {m2}, Number of Surfaces, Number of SubSurfaces, Number of Shading SubSurfaces,  Part of Total Building Area
 Zone Information, VAV BOX ELECTRIC-1,0.0,0.00,0.00,0.00,5.45,5.66,1.67,1,1,1,-3.40,14.28,0.94,10.39,0.00,3.35,3.35,487.42,TARP,DOE-2,167.04,90.95,90.95,0.00,6,0,0,Yes
 Zone Information, VAV BOX FURNACE-1,0.0,0.00,0.00,0.00,22.43,5.67,1.68,1,1,1,14.28,30.58,0.94,10.39,0.00,3.35,3.35,448.59,TARP,DOE-2,154.08,86.35,86.35,0.00,6,0,0,Yes
 Zone Information, VAV BOX HOT WATER-1,0.0,0.00,0.00,0.00,5.46,-4.24,1.67,1,1,1,-3.40,14.28,-9.42,0.94,0.00,3.35,3.35,536.06,TARP,DOE-2,183.20,93.68,93.68,0.00,6,0,0,Yes
 Zone Information, VAV BOX NO REHEAT-1,0.0,0.00,0.00,0.00,22.43,-4.25,1.68,1,1,1,14.28,30.58,-9.42,0.94,0.00,3.35,3.35,493.91,TARP,DOE-2,168.99,89.42,89.42,0.00,6,0,0,Yes
! <Zone Internal Gains Nominal>,Zone Name, Floor Area {m2},# Occupants,Area per Occupant {m2/person},Occupant per Area {person/m2},Interior Lighting {W/m2},Electric Load {W/m2},Gas Load {W/m2},Other Load {W/m2},Hot Water Eq {W/m2},Steam Equipment {W/m2},Sum Loads per Area {W/m2},Outdoor Controlled Baseboard Heat
 Zone Internal Gains Nominal, VAV BOX ELECTRIC-1,167.04,72.0,2.320,0.431,21.517,21.528,0.000,0.000,0.000,0.000,43.045,No
 Zone Internal Gains Nominal, VAV BOX FURNACE-1,154.08,108.0,1.427,0.701,9.688,5.813,0.000,0.000,0.000,0.000,15.500,No
 Zone Internal Gains Nominal, VAV BOX HOT WATER-1,183.20,7.0,26.172,3.821E-002,10.764,13.993,0.000,0.000,0.000,0.000,24.757,No
 Zone Internal Gains Nominal, VAV BOX NO REHEAT-1,168.99,6.0,28.165,3.550E-002,10.764,13.993,0.000,0.000,0.000,0.000,24.757,No
! <People Internal Gains Nominal>,Name,Schedule Name,Zone Name,Zone Floor Area {m2},# Zone Occupants,Number of People {},People/Floor Area {person/m2},Floor Area per person {m2/person},Fraction Radiant,Fraction Convected,Sensible Fraction Calculation,Activity level,ASHRAE 55 Warnings,Carbon Dioxide Generation Rate,Nominal Minimum Number of People,Nominal Maximum Number of People
 People Internal Gains Nominal, SPACE 1_PEOPLE,SCHOOL OCCUPANCY - 8AM TO 9PM,VAV BOX ELECTRIC-1,167.04,72.0,72.0,0.431,2.320,0.300,0.700,0.500,ACTIVITY_70.33705684133334,No,3.8200E-008,0,72
 People Internal Gains Nominal, SPACE 2_PEOPLE,RESTAURANT OCCUPANCY - LUNCH AND DINNER,VAV BOX FURNACE-1,154.08,108.0,108.0,0.701,1.427,0.300,0.700,0.500,ACTIVITY_161.1890885947222,No,3.8200E-008,0,108
 People Internal Gains Nominal, ANALYTICAL SPACE 1_PEOPLE,COMMON OFFICE OCCUPANCY - 8 AM TO 5 PM,VAV BOX HOT WATER-1,183.20,7.0,7.0,3.821E-002,26.172,0.300,0.700,0.556,ACTIVITY_131.8819815775,No,3.8200E-008,0,7
 People Internal Gains Nominal, SPACE 3_PEOPLE,COMMON OFFICE OCCUPANCY - 8 AM TO 5 PM,VAV BOX NO REHEAT-1,168.99,6.0,6.0,3.550E-002,28.165,0.300,0.700,0.556,ACTIVITY_131.8819815775,No,3.8200E-008,0,6
! <Lights Internal Gains Nominal>,Name,Schedule Name,Zone Name,Zone Floor Area {m2},# Zone Occupants,Lighting Level {W},Lights/Floor Area {W/m2},Lights per person {W/person},Fraction Return Air,Fraction Radiant,Fraction Short Wave,Fraction Convected,Fraction Replaceable,End-Use Category,Nominal Minimum Lighting Level {W},Nominal Maximum Lighting Level {W}
 Lights Internal Gains Nominal, SPACE 1_LIGHTS,SCHOOL LIGHTING - 7 AM TO 9 PM,VAV BOX ELECTRIC-1,167.04,72.0,3594.202,21.517,49.919,0.000,0.000,0.000,1.000,1.000,General,0.000,3594.202
 Lights Internal Gains Nominal, SPACE 2_LIGHTS,RETAIL LIGHTING - 7 AM TO 8 PM,VAV BOX FURNACE-1,154.08,108.0,1492.649,9.688,13.821,0.000,0.000,0.000,1.000,1.000,General,0.000,1492.649
 Lights Internal Gains Nominal, ANALYTICAL SPACE 1_LIGHTS,OFFICE LIGHTING - 6 AM TO 11 PM,VAV BOX HOT WATER-1,183.20,7.0,1972.000,10.764,281.714,0.000,0.000,0.000,1.000,1.000,General,0.000,1972.000
 Lights Internal Gains Nominal, SPACE 3_LIGHTS,OFFICE LIGHTING - 6 AM TO 11 PM,VAV BOX NO REHEAT-1,168.99,6.0,1818.999,10.764,303.167,0.000,0.000,0.000,1.000,1.000,General,0.000,1818.999
! <ElectricEquipment Internal Gains Nominal>,Name,Schedule Name,Zone Name,Zone Floor Area {m2},# Zone Occupants,Equipment Level {W},Equipment/Floor Area {W/m2},Equipment per person {W/person},Fraction Latent,Fraction Radiant,Fraction Lost,Fraction Convected,End-Use SubCategory,Nominal Minimum Equipment Level {W},Nominal Maximum Equipment Level {W}
 ElectricEquipment Internal Gains Nominal, SPACE 1_ELEC_EQUIP,SCHOOL LIGHTING - 7 AM TO 9 PM,VAV BOX ELECTRIC-1,167.04,72.0,3596.000,21.528,49.944,0.000,0.000,0.000,1.000,General,0.000,3596.000
 ElectricEquipment Internal Gains Nominal, SPACE 2_ELEC_EQUIP,RETAIL LIGHTING - 7 AM TO 8 PM,VAV BOX FURNACE-1,154.08,108.0,895.590,5.813,8.292,0.000,0.000,0.000,1.000,General,0.000,895.590
 ElectricEquipment Internal Gains Nominal, ANALYTICAL SPACE 1_ELEC_EQUIP,OFFICE LIGHTING - 6 AM TO 11 PM,VAV BOX HOT WATER-1,183.20,7.0,2563.601,13.993,366.229,0.000,0.000,0.000,1.000,General,0.000,2563.601
 ElectricEquipment Internal Gains Nominal, SPACE 3_ELEC_EQUIP,OFFICE LIGHTING - 6 AM TO 11 PM,VAV BOX NO REHEAT-1,168.99,6.0,2364.699,13.993,394.117,0.000,0.000,0.000,1.000,General,0.000,2364.699
! <Shadowing/Sun Position Calculations Annual Simulations>, Calculation Method, Value {days}, Allowable Number Figures in Shadow Overlap {}, Polygon Clipping Algorithm, Sky Diffuse Modeling Algorithm, External Shading Calculation Method, Output External Shading Calculation Results, Disable Self-Shading Within Shading Zone Groups, Disable Self-Shading From Shading Zone Groups to Other Zones
Shadowing/Sun Position Calculations Annual Simulations,AverageOverDaysInFrequency,20,15000,SutherlandHodgman,SimpleSkyDiffuseModeling,InternalCalculation,No,No,No
! <ZoneInfiltration Airflow Stats Nominal>,Name,Schedule Name,Zone Name, Zone Floor Area {m2}, # Zone Occupants,Design Volume Flow Rate {m3/s},Volume Flow Rate/Floor Area {m3/s-m2},Volume Flow Rate/Exterior Surface Area {m3/s-m2},ACH - Air Changes per Hour,Equation A - Constant Term Coefficient {},Equation B - Temperature Term Coefficient {1/C},Equation C - Velocity Term Coefficient {s/m}, Equation D - Velocity Squared Term Coefficient {s2/m2}
 ZoneInfiltration Airflow Stats Nominal, SPACE 1_INFILTRATION,ALL NONE OCC SCH BASED INFILTRATION SCH,VAV BOX ELECTRIC-1,167.04,72.0,1.756E-002,1.051E-004,6.831E-005,0.130,1.000,0.000,0.000,0.000
 ZoneInfiltration Airflow Stats Nominal, SPACE 2_INFILTRATION,ENTHELECACDXELECCV OCC SCH BASED INFILTRATION SCH,VAV BOX FURNACE-1,154.08,108.0,1.667E-002,1.082E-004,6.933E-005,0.134,1.000,0.000,0.000,0.000
 ZoneInfiltration Airflow Stats Nominal, ANALYTICAL SPACE 1_INFILTRATION,SENSFURNACDXFURNCV OCC SCH BASED INFILTRATION SCH,VAV BOX HOT WATER-1,183.20,7.0,1.808E-002,9.871E-005,6.556E-005,0.121,1.000,0.000,0.000,0.000
 ZoneInfiltration Airflow Stats Nominal, SPACE 3_INFILTRATION,DOAS NONEHWCHWHWVV OCC SCH BASED INFILTRATION SCH,VAV BOX NO REHEAT-1,168.99,6.0,1.726E-002,1.021E-004,6.680E-005,0.126,1.000,0.000,0.000,0.000
! <AirFlow Model>, Simple
 AirFlow Model, Simple
! <RoomAir Model>, Zone Name, Mixing/Mundt/UCSDDV/UCSDCV/UCSDUFI/UCSDUFE/User Defined
RoomAir Model,VAV BOX ELECTRIC-1,Mixing/Well-Stirred
RoomAir Model,VAV BOX FURNACE-1,Mixing/Well-Stirred
RoomAir Model,VAV BOX HOT WATER-1,Mixing/Well-Stirred
RoomAir Model,VAV BOX NO REHEAT-1,Mixing/Well-Stirred
! <AirflowNetwork Model:Control>, No Multizone or Distribution/Multizone with Distribution/Multizone without Distribution/Multizone with Distribution only during Fan Operation
AirflowNetwork Model:Control,NoMultizoneOrDistribution
! <Zone Volume Capacitance Multiplier>, Sensible Heat Capacity Multiplier, Moisture Capacity Multiplier, Carbon Dioxide Capacity Multiplier, Generic Contaminant Capacity Multiplier
Zone Volume Capacitance Multiplier,   1.000 ,   1.000,   1.000,   1.000
! <Zone Sizing DOAS Inputs>, Zone Name, DOAS Design Control Strategy, DOAS Design Low Setpoint Temperature {C}, DOAS Design High Setpoint Temperature {C} 
 Zone Sizing DOAS Inputs, VAV BOX NO REHEAT-1, ColdSupplyAir, 12.778, 15.556
! <Load Timesteps in Zone Design Calculation Averaging Window>, Value
 Load Timesteps in Zone Design Calculation Averaging Window,    4
! <Heating Sizing Factor Information>, Sizing Factor ID, Value
 Heating Sizing Factor Information, Global,   1.0000    
! <Cooling Sizing Factor Information>, Sizing Factor ID, Value
 Cooling Sizing Factor Information, Global,   1.0000    
! <Zone Sizing Information>, Zone Name, Load Type, Calc Des Load {W}, User Des Load {W}, Calc Des Air Flow Rate {m3/s}, User Des Air Flow Rate {m3/s}, Design Day Name, Date/Time of Peak, Temperature at Peak {C}, Humidity Ratio at Peak {kgWater/kgDryAir}, Floor Area {m2}, # Occupants, Calc Outdoor Air Flow Rate {m3/s}, Calc DOAS Heat Addition Rate {W}
 Zone Sizing Information, VAV BOX ELECTRIC-1, Cooling, 10712.58061, 10712.58061, 1.00881, 1.00881, DENVER INTL AP ANN CLG .4% CONDNS DB=>MWB, 7/21 18:30:00, 29.81200, 5.90620E-003, 167.03968, 72.00000, 0.30577, 0.00000
 Zone Sizing Information, VAV BOX ELECTRIC-1, Heating, 3708.73672, 3708.73672, 0.19622, 0.30577, DENVER INTL AP ANN HTG 99.6% CONDNS DB, 12/21 24:00:00, -17.40000, 9.92031E-004, 167.03968, 72.00000, 0.30577, 0.00000
 Zone Sizing Information, VAV BOX FURNACE-1, Cooling, 11250.44713, 11250.44713, 1.06215, 1.06215, DENVER INTL AP ANN CLG .4% CONDNS DB=>MWB, 7/21 18:00:00, 30.95200, 5.90620E-003, 154.07962, 108.00000, 0.52317, 0.00000
 Zone Sizing Information, VAV BOX FURNACE-1, Heating, 3490.08029, 3490.08029, 0.18465, 0.52317, DENVER INTL AP ANN HTG 99.6% CONDNS DB, 12/21 24:00:00, -17.40000, 9.92031E-004, 154.07962, 108.00000, 0.52317, 0.00000
 Zone Sizing Information, VAV BOX HOT WATER-1, Cooling, 6282.99253, 6282.99253, 0.59116, 0.59116, DENVER INTL AP ANN CLG .4% CONDNS DB=>MWB, 7/21 17:45:00, 31.33200, 5.90620E-003, 183.20484, 7.00000, 7.23590E-002, 0.00000
 Zone Sizing Information, VAV BOX HOT WATER-1, Heating, 3919.70000, 3919.70000, 0.20738, 0.20738, DENVER INTL AP ANN HTG 99.6% CONDNS DB, 12/21 24:00:00, -17.40000, 9.92031E-004, 183.20484, 7.00000, 7.23590E-002, 0.00000
 Zone Sizing Information, VAV BOX NO REHEAT-1, Cooling, 5007.84550, 5007.84550, 0.47118, 0.47118, DENVER INTL AP ANN CLG .4% CONDNS DB=>MWB, 7/21 16:45:00, 32.77600, 5.90619E-003, 168.99058, 6.00000, 6.56668E-002, -704.03825
 Zone Sizing Information, VAV BOX NO REHEAT-1, Heating, 4071.77614, 4071.77614, 0.21538, 0.21538, DENVER INTL AP ANN HTG 99.6% CONDNS DB, 12/21 24:00:00, -17.40000, 9.92031E-004, 168.99058, 6.00000, 6.56668E-002, -366.89229
! <System Sizing Information>, System Name, Load Type, Peak Load Kind, User Design Capacity, Calc Des Air Flow Rate [m3/s], User Des Air Flow Rate [m3/s], Design Day Name, Date/Time of Peak
 System Sizing Information, ALL NONE, Cooling, Sensible, 13559.55, 1.00881, 1.00881, DENVER INTL AP ANN CLG .4% CONDNS DB=>MWB, 7/21 00:00:00
 System Sizing Information, ALL NONE, Heating, Sensible, 9148.24, 0.30577, 0.30577, DENVER INTL AP ANN HTG 99.6% CONDNS DB, 12/21 00:15:00
 System Sizing Information, DOAS NONEHWCHWHWVV, Cooling, Sensible, 1420.71, 0.47118, 6.56668E-002, DENVER INTL AP ANN CLG .4% CONDNS DB=>MWB, 7/21 00:00:00
 System Sizing Information, DOAS NONEHWCHWHWVV, Heating, Sensible, 2145.54, 0.21538, 6.56668E-002, DENVER INTL AP ANN HTG 99.6% CONDNS DB, 12/21 24:00:00
 System Sizing Information, ENTHELECACDXELECCV, Cooling, Sensible, 16779.17, 1.06215, 1.06215, DENVER INTL AP ANN CLG .4% CONDNS DB=>MWB, 7/21 00:00:00
 System Sizing Information, ENTHELECACDXELECCV, Heating, Sensible, 15652.74, 0.52317, 0.52317, DENVER INTL AP ANN HTG 99.6% CONDNS DB, 12/21 00:15:00
 System Sizing Information, SENSFURNACDXFURNCV, Cooling, Sensible, 6827.85, 0.59116, 0.59116, DENVER INTL AP ANN CLG .4% CONDNS DB=>MWB, 7/21 00:00:00
 System Sizing Information, SENSFURNACDXFURNCV, Heating, Sensible, 1074.71, 0.20738, 0.20738, DENVER INTL AP ANN HTG 99.6% CONDNS DB, 12/21 01:00:00
! <Component Sizing Information>, Component Type, Component Name, Input Field Description, Value
 Component Sizing Information, AirTerminal:SingleDuct:VAV:Reheat, VAV BOX ELECTRIC-1 1, Design Size Maximum Air Flow Rate [m3/s], 1.00881
 Component Sizing Information, AirTerminal:SingleDuct:VAV:Reheat, VAV BOX ELECTRIC-1 1, Design Size Constant Minimum Air Flow Fraction, 0.12617
 Component Sizing Information, AirTerminal:SingleDuct:VAV:Reheat, VAV BOX ELECTRIC-1 1, User-Specified Constant Minimum Air Flow Fraction, 0.30000
 Component Sizing Information, AirTerminal:SingleDuct:VAV:Reheat, VAV BOX ELECTRIC-1 1, Design Size Minimum Air Flow Rate [m3/s], 0.30264
 Component Sizing Information, AirTerminal:SingleDuct:VAV:Reheat, VAV BOX ELECTRIC-1 1, Design Size Maximum Flow per Zone Floor Area during Reheat [m3/s-m2], 1.81181E-003
 Component Sizing Information, AirTerminal:SingleDuct:VAV:Reheat, VAV BOX ELECTRIC-1 1, Design Size Maximum Flow Fraction during Reheat [], 0.30000
 Component Sizing Information, Coil:Heating:Electric, VAV BOX ELECTRIC-1 HEATING COIL, Design Size Nominal Capacity [W], 8243.44908
 Component Sizing Information, AirTerminal:SingleDuct:VAV:Reheat, VAV BOX FURNACE-1 1, Design Size Maximum Air Flow Rate [m3/s], 1.06215
 Component Sizing Information, AirTerminal:SingleDuct:VAV:Reheat, VAV BOX FURNACE-1 1, Design Size Constant Minimum Air Flow Fraction, 0.11054
 Component Sizing Information, AirTerminal:SingleDuct:VAV:Reheat, VAV BOX FURNACE-1 1, User-Specified Constant Minimum Air Flow Fraction, 0.30000
 Component Sizing Information, AirTerminal:SingleDuct:VAV:Reheat, VAV BOX FURNACE-1 1, Design Size Minimum Air Flow Rate [m3/s], 0.31865
 Component Sizing Information, AirTerminal:SingleDuct:VAV:Reheat, VAV BOX FURNACE-1 1, Design Size Maximum Flow per Zone Floor Area during Reheat [m3/s-m2], 2.06805E-003
 Component Sizing Information, AirTerminal:SingleDuct:VAV:Reheat, VAV BOX FURNACE-1 1, Design Size Maximum Flow Fraction during Reheat [], 0.30000
 Component Sizing Information, Coil:Heating:Fuel, VAV BOX FURNACE-1 HEATING COIL, Design Size Nominal Capacity [W], 8679.27777
 Component Sizing Information, AirTerminal:SingleDuct:VAV:Reheat, VAV BOX HOT WATER-1 1, Design Size Maximum Air Flow Rate [m3/s], 0.59116
 Component Sizing Information, AirTerminal:SingleDuct:VAV:Reheat, VAV BOX HOT WATER-1 1, Design Size Constant Minimum Air Flow Fraction, 0.23615
 Component Sizing Information, AirTerminal:SingleDuct:VAV:Reheat, VAV BOX HOT WATER-1 1, User-Specified Constant Minimum Air Flow Fraction, 0.30000
 Component Sizing Information, AirTerminal:SingleDuct:VAV:Reheat, VAV BOX HOT WATER-1 1, Design Size Minimum Air Flow Rate [m3/s], 0.17735
 Component Sizing Information, AirTerminal:SingleDuct:VAV:Reheat, VAV BOX HOT WATER-1 1, Design Size Maximum Flow per Zone Floor Area during Reheat [m3/s-m2], 9.68032E-004
 Component Sizing Information, AirTerminal:SingleDuct:VAV:Reheat, VAV BOX HOT WATER-1 1, Design Size Maximum Flow Fraction during Reheat [], 0.30000
 Component Sizing Information, AirTerminal:SingleDuct:VAV:Reheat, VAV BOX HOT WATER-1 1, Design Size Maximum Reheat Water Flow Rate [m3/s], 8.23505E-005
 Component Sizing Information, AirTerminal:SingleDuct:VAV:Reheat, VAV BOX HOT WATER-1 1, Design Size Reheat Coil Sizing Air Volume Flow Rate [m3/s], 0.20738
 Component Sizing Information, AirTerminal:SingleDuct:VAV:Reheat, VAV BOX HOT WATER-1 1, Design Size Reheat Coil Sizing Inlet Air Temperature [C], 12.77778
 Component Sizing Information, AirTerminal:SingleDuct:VAV:Reheat, VAV BOX HOT WATER-1 1, Design Size Reheat Coil Sizing Inlet Air Humidity Ratio [kgWater/kgDryAir], 5.00000E-003
 Component Sizing Information, Coil:Heating:Water, VAV BOX HOT WATER-1 HEATING COIL, Design Size Rated Capacity [W], 5647.44838
 Component Sizing Information, Coil:Heating:Water, VAV BOX HOT WATER-1 HEATING COIL, Design Size Maximum Water Flow Rate [m3/s], 8.23505E-005
 Component Sizing Information, Coil:Heating:Water, VAV BOX HOT WATER-1 HEATING COIL, Design Size U-Factor Times Area Value [W/K], 248.33120
! <Water Heating Coil Capacity Information>,Component Type,Name,Nominal Total Capacity {W}
Water Heating Coil Capacity Information,Coil:Heating:Water,VAV BOX HOT WATER-1 HEATING COIL,7460.49
 Component Sizing Information, ZoneHVAC:PackagedTerminalAirConditioner, PTAC ELEC-1, Design Size Cooling Supply Air Flow Rate [m3/s], 0.47118
 Component Sizing Information, ZoneHVAC:PackagedTerminalAirConditioner, PTAC ELEC-1, Design Size Heating Supply Air Flow Rate [m3/s], 0.47118
 Component Sizing Information, ZoneHVAC:PackagedTerminalAirConditioner, PTAC ELEC-1, Design Size No Load Supply Air Flow Rate [m3/s], 0.47118
 Component Sizing Information, ZoneHVAC:PackagedTerminalAirConditioner, PTAC ELEC-1, Design Size Outdoor Air Flow Rate During Cooling Operation [m3/s], 6.56668E-002
 Component Sizing Information, ZoneHVAC:PackagedTerminalAirConditioner, PTAC ELEC-1, Design Size Outdoor Air Flow Rate During Heating Operation [m3/s], 6.56668E-002
 Component Sizing Information, ZoneHVAC:PackagedTerminalAirConditioner, PTAC ELEC-1, Design Size Outdoor Air Flow Rate When No Cooling or Heating is Needed [m3/s], 6.56668E-002
 Component Sizing Information, Coil:Cooling:DX:SingleSpeed, PTAC ELEC-1 + COOLING COIL, Design Size Rated Air Flow Rate [m3/s], 0.47118
 Component Sizing Information, Coil:Cooling:DX:SingleSpeed, PTAC ELEC-1 + COOLING COIL, Design Size Gross Rated Total Cooling Capacity [W], 7799.69393
 Component Sizing Information, Coil:Cooling:DX:SingleSpeed, PTAC ELEC-1 + COOLING COIL, Design Size Gross Rated Sensible Heat Ratio, 0.80066
! <DX Cooling Coil Standard Rating Information>, Component Type, Component Name, Standard Rating (Net) Cooling Capacity {W}, Standard Rated Net COP {W/W}, EER {Btu/W-h}, SEER {Btu/W-h}, IEER {Btu/W-h}
 DX Cooling Coil Standard Rating Information, Coil:Cooling:DX:SingleSpeed, PTAC ELEC-1 + COOLING COIL, 7434.1, 2.51, 8.56, 9.08, 8.70
 Component Sizing Information, Coil:Heating:Electric, PTAC ELEC-1 HEATING COIL, Design Size Nominal Capacity [W], 6601.78945
 Component Sizing Information, Fan:ConstantVolume, PTAC ELEC-1 + FAN, Design Size Maximum Flow Rate [m3/s], 0.47118
 Component Sizing Information, AirTerminal:SingleDuct:VAV:NoReheat, VAV BOX NO REHEAT-1 1, Design Size Maximum Air Flow Rate [m3/s], 6.56668E-002
 Component Sizing Information, AirTerminal:SingleDuct:VAV:NoReheat, VAV BOX NO REHEAT-1 1, Design Size Constant Minimum Air Flow Fraction, 1.00000
 Component Sizing Information, AirTerminal:SingleDuct:VAV:NoReheat, VAV BOX NO REHEAT-1 1, User-Specified Constant Minimum Air Flow Fraction, 0.30000
 Component Sizing Information, AirTerminal:SingleDuct:VAV:NoReheat, VAV BOX NO REHEAT-1 1, Design Size Minimum Air Flow Rate [m3/s], 1.97000E-002
 Component Sizing Information, AirLoopHVAC, ALL NONE, Sum of Air Terminal Maximum Heating Flow Rates [m3/s], 0.30264
 Component Sizing Information, AirLoopHVAC, ALL NONE, Sum of Air Terminal Minimum Heating Flow Rates [m3/s], 0.30264
 Component Sizing Information, AirLoopHVAC, ALL NONE, Sum of Air Terminal Maximum Flow Rates [m3/s], 1.00881
 Component Sizing Information, AirLoopHVAC, ALL NONE, Adjusted Heating Design Air Flow Rate [m3/s], 0.30577
 Component Sizing Information, AirLoopHVAC, ALL NONE, Adjusted Cooling Design Air Flow Rate [m3/s], 1.00881
 Component Sizing Information, AirLoopHVAC, ALL NONE, Adjusted Main Design Air Flow Rate [m3/s], 1.00881
 Component Sizing Information, AirLoopHVAC, ALL NONE, User Heating Air Flow Ratio [], 0.30000
 Component Sizing Information, AirLoopHVAC, ALL NONE, Calculated Heating Air Flow Ratio [], 0.30309
 Component Sizing Information, AirLoopHVAC, DOAS NONEHWCHWHWVV, Sum of Air Terminal Maximum Heating Flow Rates [m3/s], 1.97000E-002
 Component Sizing Information, AirLoopHVAC, DOAS NONEHWCHWHWVV, Sum of Air Terminal Minimum Heating Flow Rates [m3/s], 1.97000E-002
 Component Sizing Information, AirLoopHVAC, DOAS NONEHWCHWHWVV, Sum of Air Terminal Maximum Flow Rates [m3/s], 6.56668E-002
 Component Sizing Information, AirLoopHVAC, DOAS NONEHWCHWHWVV, Adjusted Heating Design Air Flow Rate [m3/s], 6.56668E-002
 Component Sizing Information, AirLoopHVAC, DOAS NONEHWCHWHWVV, Adjusted Cooling Design Air Flow Rate [m3/s], 6.56668E-002
 Component Sizing Information, AirLoopHVAC, DOAS NONEHWCHWHWVV, Adjusted Main Design Air Flow Rate [m3/s], 6.56668E-002
 Component Sizing Information, AirLoopHVAC, DOAS NONEHWCHWHWVV, Calculated Heating Air Flow Ratio [], 1.00000
 Component Sizing Information, AirLoopHVAC, DOAS NONEHWCHWHWVV, User Heating Air Flow Ratio [], 1.00000
 Component Sizing Information, AirLoopHVAC, ENTHELECACDXELECCV, Sum of Air Terminal Maximum Heating Flow Rates [m3/s], 0.31865
 Component Sizing Information, AirLoopHVAC, ENTHELECACDXELECCV, Sum of Air Terminal Minimum Heating Flow Rates [m3/s], 0.31865
 Component Sizing Information, AirLoopHVAC, ENTHELECACDXELECCV, Sum of Air Terminal Maximum Flow Rates [m3/s], 1.06215
 Component Sizing Information, AirLoopHVAC, ENTHELECACDXELECCV, Adjusted Heating Design Air Flow Rate [m3/s], 0.52317
 Component Sizing Information, AirLoopHVAC, ENTHELECACDXELECCV, Adjusted Cooling Design Air Flow Rate [m3/s], 1.06215
 Component Sizing Information, AirLoopHVAC, ENTHELECACDXELECCV, Adjusted Main Design Air Flow Rate [m3/s], 1.06215
 Component Sizing Information, AirLoopHVAC, ENTHELECACDXELECCV, User Heating Air Flow Ratio [], 0.30000
 Component Sizing Information, AirLoopHVAC, ENTHELECACDXELECCV, Calculated Heating Air Flow Ratio [], 0.49256
 Component Sizing Information, AirLoopHVAC, SENSFURNACDXFURNCV, Sum of Air Terminal Maximum Heating Flow Rates [m3/s], 0.17735
 Component Sizing Information, AirLoopHVAC, SENSFURNACDXFURNCV, Sum of Air Terminal Minimum Heating Flow Rates [m3/s], 0.17735
 Component Sizing Information, AirLoopHVAC, SENSFURNACDXFURNCV, Sum of Air Terminal Maximum Flow Rates [m3/s], 0.59116
 Component Sizing Information, AirLoopHVAC, SENSFURNACDXFURNCV, Adjusted Heating Design Air Flow Rate [m3/s], 0.20738
 Component Sizing Information, AirLoopHVAC, SENSFURNACDXFURNCV, Adjusted Cooling Design Air Flow Rate [m3/s], 0.59116
 Component Sizing Information, AirLoopHVAC, SENSFURNACDXFURNCV, Adjusted Main Design Air Flow Rate [m3/s], 0.59116
 Component Sizing Information, AirLoopHVAC, SENSFURNACDXFURNCV, User Heating Air Flow Ratio [], 0.30000
 Component Sizing Information, AirLoopHVAC, SENSFURNACDXFURNCV, Calculated Heating Air Flow Ratio [], 0.35080
 Component Sizing Information, AirLoopHVAC, ALL NONE, Design Supply Air Flow Rate [m3/s], 1.00881
 Component Sizing Information, AirLoopHVAC, DOAS NONEHWCHWHWVV, Design Supply Air Flow Rate [m3/s], 6.56668E-002
 Component Sizing Information, AirLoopHVAC, DOAS NONEHWCHWHWVV, Central Heating Maximum System Air Flow Ratio, 1.00000
 Component Sizing Information, AirLoopHVAC, ENTHELECACDXELECCV, Design Supply Air Flow Rate [m3/s], 1.06215
 Component Sizing Information, AirLoopHVAC, SENSFURNACDXFURNCV, Design Supply Air Flow Rate [m3/s], 0.59116
!<Controller:MechanicalVentilation>,Name,Availability Schedule Name,Demand Controlled Ventilation {Yes/No},System Outdoor Air Method,Zone Maximum Outdoor Air Fraction,Number of Zones,Zone Name,DSOA Name,DSZAD Name
 Controller:MechanicalVentilation,ALL NONE CONTROLLER MECHANICAL VENTILATION,ALWAYS ON DISCRETE,Yes,ZoneSum,1.00,1,VAV BOX ELECTRIC-1,SPACE 1_VENTILATION,VAV BOX ELECTRIC-1 DESIGN SPEC ZONE AIR DIST
 Controller:MechanicalVentilation,ENTHELECACDXELECCV CONTROLLER MECHANICAL VENTILATION,ALWAYS ON DISCRETE,Yes,ZoneSum,1.00,1,VAV BOX FURNACE-1,SPACE 2_VENTILATION,VAV BOX FURNACE-1 DESIGN SPEC ZONE AIR DIST
 Controller:MechanicalVentilation,SENSFURNACDXFURNCV CONTROLLER MECHANICAL VENTILATION,ALWAYS ON DISCRETE,Yes,ZoneSum,1.00,1,VAV BOX HOT WATER-1,ANALYTICAL SPACE 1_VENTILATION,VAV BOX HOT WATER-1 DESIGN SPEC ZONE AIR DIST
 Controller:MechanicalVentilation,DOAS NONEHWCHWHWVV CONTROLLER MECHANICAL VENTILATION,ALWAYS ON DISCRETE,Yes,ZoneSum,1.00,1,VAV BOX NO REHEAT-1,SPACE 3_VENTILATION,VAV BOX NO REHEAT-1 DESIGN SPEC ZONE AIR DIST
 Component Sizing Information, Controller:OutdoorAir, ALL NONE CONTROLLER OUTDOOR AIR, Maximum Outdoor Air Flow Rate [m3/s], 1.00881
 Component Sizing Information, Fan:VariableVolume, ALL NONE SUPPLY FAN, Design Size Maximum Flow Rate [m3/s], 1.00881
 Component Sizing Information, Controller:OutdoorAir, DOAS NONEHWCHWHWVV CONTROLLER OUTDOOR AIR, Maximum Outdoor Air Flow Rate [m3/s], 6.56668E-002
 Component Sizing Information, Coil:Heating:Water, DOAS NONEHWCHWHWVV PREHEAT COIL, Design Size Rated Capacity [W], 1393.22569
 Component Sizing Information, Coil:Heating:Water, DOAS NONEHWCHWHWVV PREHEAT COIL, Design Size Maximum Water Flow Rate [m3/s], 2.03159E-005
 Component Sizing Information, Coil:Heating:Water, DOAS NONEHWCHWHWVV PREHEAT COIL, Design Size U-Factor Times Area Value [W/K], 25.22306
Water Heating Coil Capacity Information,Coil:Heating:Water,DOAS NONEHWCHWHWVV PREHEAT COIL,1186.08
 Component Sizing Information, Controller:WaterCoil, CONTROLLER WATER COIL 1, Maximum Actuated Flow [m3/s], 2.03159E-005
 Component Sizing Information, Controller:WaterCoil, CONTROLLER WATER COIL 1, Controller Convergence Tolerance, 1.00000E-003
 Component Sizing Information, Coil:Cooling:Water, DOAS NONEHWCHWHWVV COOLING COIL, Design Size Design Inlet Air Temperature [C], 34.60000
 Component Sizing Information, Coil:Cooling:Water, DOAS NONEHWCHWHWVV COOLING COIL, Design Size Design Inlet Water Temperature [C], 6.66667
 Component Sizing Information, Coil:Cooling:Water, DOAS NONEHWCHWHWVV COOLING COIL, Design Size Design Outlet Air Temperature [C], 11.12150
 Component Sizing Information, Coil:Cooling:Water, DOAS NONEHWCHWHWVV COOLING COIL, Design Size Design Inlet Air Humidity Ratio, 5.90619E-003
 Component Sizing Information, Coil:Cooling:Water, DOAS NONEHWCHWHWVV COOLING COIL, Design Size Design Outlet Air Humidity Ratio, 5.90619E-003
 Component Sizing Information, Coil:Cooling:Water, DOAS NONEHWCHWHWVV COOLING COIL, Design Size Design Coil Load [W], 1545.21761
 Component Sizing Information, Coil:Cooling:Water, DOAS NONEHWCHWHWVV COOLING COIL, Design Size Design Water Flow Rate [m3/s], 4.14144E-005
 Component Sizing Information, Coil:Cooling:Water, DOAS NONEHWCHWHWVV COOLING COIL, Design Size Design Air Flow Rate [m3/s], 6.56668E-002
! <Water Cooling Coil Capacity Information>,Component Type,Name,Nominal Total Capacity {W},Nominal Sensible Capacity {W},Nominal Latent Capacity {W},Nominal Sensible Heat Ratio, Nominal Coil UA Value {W/C}, Nominal Coil Surface Area {m2}
Water Cooling Coil Capacity Information,Coil:Cooling:Water,DOAS NONEHWCHWHWVV COOLING COIL,1615.32,988.92,626.40,0.61,246.58,2.50
 Component Sizing Information, Coil:Heating:Water, DOAS NONEHWCHWHWVV HEATING COIL, Design Size Rated Capacity [W], 752.31297
 Component Sizing Information, Coil:Heating:Water, DOAS NONEHWCHWHWVV HEATING COIL, Design Size Maximum Water Flow Rate [m3/s], 1.09701E-005
 Component Sizing Information, Coil:Heating:Water, DOAS NONEHWCHWHWVV HEATING COIL, Design Size U-Factor Times Area Value [W/K], 18.88439
Water Heating Coil Capacity Information,Coil:Heating:Water,DOAS NONEHWCHWHWVV HEATING COIL,884.27
 Component Sizing Information, Fan:VariableVolume, DOAS NONEHWCHWHWVV SUPPLY FAN, Design Size Maximum Flow Rate [m3/s], 6.56668E-002
 Component Sizing Information, Controller:WaterCoil, CONTROLLER WATER COIL 2, Maximum Actuated Flow [m3/s], 4.14144E-005
 Component Sizing Information, Controller:WaterCoil, CONTROLLER WATER COIL 2, Controller Convergence Tolerance, 1.00000E-003
 Component Sizing Information, Controller:WaterCoil, CONTROLLER WATER COIL 3, Maximum Actuated Flow [m3/s], 1.09701E-005
 Component Sizing Information, Controller:WaterCoil, CONTROLLER WATER COIL 3, Controller Convergence Tolerance, 1.00000E-003
 Component Sizing Information, Controller:OutdoorAir, ENTHELECACDXELECCV CONTROLLER OUTDOOR AIR, Maximum Outdoor Air Flow Rate [m3/s], 1.06215
 Component Sizing Information, Coil:Heating:Electric, ENTHELECACDXELECCV PREHEAT COIL, Design Size Nominal Capacity [W], 11099.84676
 Component Sizing Information, HeatExchanger:AirToAir:SensibleAndLatent, ENTHELECACDXELECCV HEAT EXCHANGER, Design Size Nominal Supply Air Flow Rate [m3/s], 0.52317
 Component Sizing Information, Coil:Cooling:DX:SingleSpeed, ENTHELECACDXELECCV COOLING COIL, Design Size Rated Air Flow Rate [m3/s], 1.06215
 Component Sizing Information, Coil:Cooling:DX:SingleSpeed, ENTHELECACDXELECCV COOLING COIL, Design Size Gross Rated Total Cooling Capacity [W], 20762.61439
 Component Sizing Information, Coil:Cooling:DX:SingleSpeed, ENTHELECACDXELECCV COOLING COIL, Design Size Gross Rated Sensible Heat Ratio, 0.78134
 DX Cooling Coil Standard Rating Information, Coil:Cooling:DX:SingleSpeed, ENTHELECACDXELECCV COOLING COIL, 19937.9, 2.58, 8.79, 9.33, 9.06
 Component Sizing Information, Coil:Heating:Electric, ENTHELECACDXELECCV HEATING COIL, Design Size Nominal Capacity [W], 2773.02570
 Component Sizing Information, Fan:VariableVolume, ENTHELECACDXELECCV SUPPLY FAN, Design Size Maximum Flow Rate [m3/s], 1.06215
 Component Sizing Information, Controller:OutdoorAir, SENSFURNACDXFURNCV CONTROLLER OUTDOOR AIR, Maximum Outdoor Air Flow Rate [m3/s], 0.59116
 Component Sizing Information, Coil:Heating:Fuel, SENSFURNACDXFURNCV PREHEAT COIL, Design Size Nominal Capacity [W], 1535.21241
 Component Sizing Information, HeatExchanger:AirToAir:SensibleAndLatent, SENSFURNACDXFURNCV HEAT EXCHANGER, Design Size Nominal Supply Air Flow Rate [m3/s], 7.23590E-002
 Component Sizing Information, Coil:Cooling:DX:SingleSpeed, SENSFURNACDXFURNCV COOLING COIL, Design Size Rated Air Flow Rate [m3/s], 0.59116
 Component Sizing Information, Coil:Cooling:DX:SingleSpeed, SENSFURNACDXFURNCV COOLING COIL, Design Size Gross Rated Total Cooling Capacity [W], 9785.80383
 Component Sizing Information, Coil:Cooling:DX:SingleSpeed, SENSFURNACDXFURNCV COOLING COIL, Design Size Gross Rated Sensible Heat Ratio, 0.80066
 DX Cooling Coil Standard Rating Information, Coil:Cooling:DX:SingleSpeed, SENSFURNACDXFURNCV COOLING COIL, 9327.1, 2.51, 8.56, 9.08, 8.70
 Component Sizing Information, Coil:Heating:Fuel, SENSFURNACDXFURNCV HEATING COIL, Design Size Nominal Capacity [W], 0.00000
 Component Sizing Information, Fan:VariableVolume, SENSFURNACDXFURNCV SUPPLY FAN, Design Size Maximum Flow Rate [m3/s], 0.59116
 Component Sizing Information, PlantLoop, CHW LOOP, Maximum Loop Flow Rate [m3/s], 4.14144E-005
 Component Sizing Information, PlantLoop, CHW LOOP, Plant Loop Volume [m3], 4.96973E-003
 Component Sizing Information, Pump:VariableSpeed, CHW LOOP PUMP, Design Flow Rate [m3/s], 4.14144E-005
 Component Sizing Information, Pump:VariableSpeed, CHW LOOP PUMP, Design Power Consumption [W], 10.58037
 Component Sizing Information, Chiller:Electric:EIR, CHW LOOP CHILLER, Design Size Reference Chilled Water Flow Rate [m3/s], 4.14144E-005
 Component Sizing Information, Chiller:Electric:EIR, CHW LOOP CHILLER, Design Size Reference Capacity [W], 1545.21761
 Component Sizing Information, Chiller:Electric:EIR, CHW LOOP CHILLER, Design Size Reference Condenser Fluid Flow Rate  [m3/s], 0.17615
! <Chiller Standard Rating Information>, Component Type, Component Name, IPLV in SI Units {W/W}, IPLV in IP Units {Btu/W-h}
 Chiller Standard Rating Information, Chiller:Electric:EIR, CHW LOOP CHILLER, 7.70, 26.26
 Component Sizing Information, PlantLoop, HW LOOP, Maximum Loop Flow Rate [m3/s], 1.13637E-004
 Component Sizing Information, PlantLoop, HW LOOP, Plant Loop Volume [m3], 1.36364E-002
 Component Sizing Information, Pump:VariableSpeed, HW LOOP PUMP, Design Flow Rate [m3/s], 1.13637E-004
 Component Sizing Information, Pump:VariableSpeed, HW LOOP PUMP, Design Power Consumption [W], 29.03138
 Component Sizing Information, Boiler:HotWater, HW LOOP BOILER, Design Size Nominal Capacity [W], 7792.98705
 Component Sizing Information, Boiler:HotWater, HW LOOP BOILER, Design Size Design Water Flow Rate [m3/s], 1.13637E-004
! <Environment>,Environment Name,Environment Type, Start Date, End Date, Start DayOfWeek, Duration {#days}, Source:Start DayOfWeek,  Use Daylight Saving, Use Holidays, Apply Weekend Holiday Rule,  Use Rain Values, Use Snow Values
! <Environment:Special Days>, Special Day Name, Special Day Type, Source, Start Date, Duration {#days}
! <Environment:Daylight Saving>, Daylight Saving Indicator, Source, Start Date, End Date
! <Environment:WarmupDays>, NumberofWarmupDays
Environment,DENVER INTL AP ANN CLG .4% CONDNS DB=>MWB,SizingPeriod:DesignDay,07/21,07/21,SummerDesignDay,1,N/A,N/A,N/A,N/A,N/A,N/A
Environment:Daylight Saving,No,SizingPeriod:DesignDay
! <Environment:Design Day Data>, Max Dry-Bulb Temp {C}, Temp Range {dC}, Temp Range Ind Type, Hum Ind Value at Max Temp, Hum Ind Type,Pressure {Pa}, Wind Direction {deg CW from N}, Wind Speed {m/s}, Clearness, Rain, Snow
! <Environment:Design Day Misc>,DayOfYear,ASHRAE A Coeff,ASHRAE B Coeff,ASHRAE C Coeff,Solar Constant-Annual Variation,Eq of Time {minutes}, Solar Declination Angle {deg}, Solar Model
Environment:Design Day Data,34.60,15.20,DefaultMultipliers,83011,80,4.2,0.00,No,No
Environment:Design Day Misc,202,1084.4,0.2082,0.1365,1.0,-6.23,20.6,ASHRAETau
Environment:WarmupDays,  6
! <Tabular Report>,Style,Unit Conversion
Tabular Report,HTML,None
! <Warmup Convergence Information>,Zone Name,Environment Type/Name,Average Warmup Temperature Difference {deltaC},Std Dev Warmup Temperature Difference {deltaC},Max Temperature Pass/Fail Convergence,Min Temperature Pass/Fail Convergence,Average Warmup Load Difference {W},Std Dev Warmup Load Difference {W},Heating Load Pass/Fail Convergence,Cooling Load Pass/Fail Convergence
 Warmup Convergence Information,VAV BOX ELECTRIC-1,SizingPeriod: DENVER INTL AP ANN CLG .4% CONDNS DB=>MWB,0.3494212834,0.5770247599,Pass,Pass,5.6895560882E-002,0.2906338641,Pass,Pass
 Warmup Convergence Information,VAV BOX FURNACE-1,SizingPeriod: DENVER INTL AP ANN CLG .4% CONDNS DB=>MWB,1.4325153679E-002,1.8462504673E-002,Pass,Pass,3.0467420550E-003,1.5338474959E-003,Pass,Pass
 Warmup Convergence Information,VAV BOX HOT WATER-1,SizingPeriod: DENVER INTL AP ANN CLG .4% CONDNS DB=>MWB,2.8953569123E-002,3.2958350746E-002,Pass,Pass,6.2978290799E-003,3.8971381662E-003,Pass,Pass
 Warmup Convergence Information,VAV BOX NO REHEAT-1,SizingPeriod: DENVER INTL AP ANN CLG .4% CONDNS DB=>MWB,1.5257128772E-002,4.7275201779E-002,Pass,Pass,8.0948613952E-003,9.2121021927E-003,Pass,Pass
Environment,DENVER INTL AP ANN CLG .4% CONDNS DP=>MDB,SizingPeriod:DesignDay,07/21,07/21,SummerDesignDay,1,N/A,N/A,N/A,N/A,N/A,N/A
Environment:Daylight Saving,No,SizingPeriod:DesignDay
Environment:Design Day Data,19.90,15.20,DefaultMultipliers,83011,80,4.2,0.00,No,No
Environment:Design Day Misc,202,1084.4,0.2082,0.1365,1.0,-6.23,20.6,ASHRAETau
Environment:WarmupDays,  6
 Warmup Convergence Information,VAV BOX ELECTRIC-1,SizingPeriod: DENVER INTL AP ANN CLG .4% CONDNS DP=>MDB,0.1067475396,0.1375329361,Pass,Pass,8.9767864738E-003,8.1647449602E-003,Pass,Pass
 Warmup Convergence Information,VAV BOX FURNACE-1,SizingPeriod: DENVER INTL AP ANN CLG .4% CONDNS DP=>MDB,3.2691186779E-004,9.0931730120E-004,Pass,Pass,3.0441902999E-003,1.2854959312E-003,Pass,Pass
 Warmup Convergence Information,VAV BOX HOT WATER-1,SizingPeriod: DENVER INTL AP ANN CLG .4% CONDNS DP=>MDB,3.9044359171E-004,1.3779218925E-003,Pass,Pass,8.5434866809E-003,3.9523267243E-003,Pass,Pass
 Warmup Convergence Information,VAV BOX NO REHEAT-1,SizingPeriod: DENVER INTL AP ANN CLG .4% CONDNS DP=>MDB,1.0493029000E-002,3.3166753150E-002,Pass,Pass,1.0388661123E-002,1.2327700124E-002,Pass,Pass
Environment,DENVER INTL AP ANN CLG .4% CONDNS ENTH=>MDB,SizingPeriod:DesignDay,07/21,07/21,SummerDesignDay,1,N/A,N/A,N/A,N/A,N/A,N/A
Environment:Daylight Saving,No,SizingPeriod:DesignDay
Environment:Design Day Data,27.00,15.20,DefaultMultipliers,83011,80,4.2,0.00,No,No
Environment:Design Day Misc,202,1084.4,0.2082,0.1365,1.0,-6.23,20.6,ASHRAETau
Environment:WarmupDays,  6
 Warmup Convergence Information,VAV BOX ELECTRIC-1,SizingPeriod: DENVER INTL AP ANN CLG .4% CONDNS ENTH=>MDB,0.3816476430,0.7095814388,Pass,Pass,4.4962445056E-002,0.2208960278,Pass,Pass
 Warmup Convergence Information,VAV BOX FURNACE-1,SizingPeriod: DENVER INTL AP ANN CLG .4% CONDNS ENTH=>MDB,0.1402566026,0.1578785404,Pass,Pass,8.8693229758E-003,6.6855832773E-003,Pass,Pass
 Warmup Convergence Information,VAV BOX HOT WATER-1,SizingPeriod: DENVER INTL AP ANN CLG .4% CONDNS ENTH=>MDB,3.5614865495E-002,5.2563858173E-002,Pass,Pass,9.1670101696E-003,5.5457049969E-003,Pass,Pass
 Warmup Convergence Information,VAV BOX NO REHEAT-1,SizingPeriod: DENVER INTL AP ANN CLG .4% CONDNS ENTH=>MDB,5.3526449994E-002,7.1402174064E-002,Pass,Pass,1.0531135459E-002,8.9308181657E-003,Pass,Pass
Environment,DENVER INTL AP ANN CLG .4% CONDNS WB=>MDB,SizingPeriod:DesignDay,07/21,07/21,SummerDesignDay,1,N/A,N/A,N/A,N/A,N/A,N/A
Environment:Daylight Saving,No,SizingPeriod:DesignDay
Environment:Design Day Data,27.30,15.20,DefaultMultipliers,83011,80,4.2,0.00,No,No
Environment:Design Day Misc,202,1084.4,0.2082,0.1365,1.0,-6.23,20.6,ASHRAETau
Environment:WarmupDays,  6
 Warmup Convergence Information,VAV BOX ELECTRIC-1,SizingPeriod: DENVER INTL AP ANN CLG .4% CONDNS WB=>MDB,0.2308066565,0.1347183146,Pass,Pass,1.3216027248E-002,1.1552550411E-002,Pass,Pass
 Warmup Convergence Information,VAV BOX FURNACE-1,SizingPeriod: DENVER INTL AP ANN CLG .4% CONDNS WB=>MDB,1.0932304223E-003,2.4585679563E-003,Pass,Pass,3.2070163667E-003,1.4522479726E-003,Pass,Pass
 Warmup Convergence Information,VAV BOX HOT WATER-1,SizingPeriod: DENVER INTL AP ANN CLG .4% CONDNS WB=>MDB,6.1883052518E-004,2.2262126686E-003,Pass,Pass,7.9314075205E-003,3.7347872849E-003,Pass,Pass
 Warmup Convergence Information,VAV BOX NO REHEAT-1,SizingPeriod: DENVER INTL AP ANN CLG .4% CONDNS WB=>MDB,1.1913387201E-002,3.5193354049E-002,Pass,Pass,9.3940843193E-003,1.1374841975E-002,Pass,Pass
Environment,DENVER INTL AP ANN HTG 99.6% CONDNS DB,SizingPeriod:DesignDay,12/21,12/21,WinterDesignDay,1,N/A,N/A,N/A,N/A,N/A,N/A
Environment:Daylight Saving,No,SizingPeriod:DesignDay
Environment:Design Day Data,-17.40,0.00,DefaultMultipliers,83011,160,3.3,0.00,No,No
Environment:Design Day Misc,355,1232.8,0.1424,5.7719E-002,1.0,2.45,-23.5,ASHRAEClearSky
Environment:WarmupDays,  6
 Warmup Convergence Information,VAV BOX ELECTRIC-1,SizingPeriod: DENVER INTL AP ANN HTG 99.6% CONDNS DB,2.0761170560E-014,2.2831127576E-014,Pass,Pass,1.5774705010E-004,8.1493455685E-006,Pass,Pass
 Warmup Convergence Information,VAV BOX FURNACE-1,SizingPeriod: DENVER INTL AP ANN HTG 99.6% CONDNS DB,4.1485333687E-014,3.4860276174E-014,Pass,Pass,1.5373466466E-004,9.4546953337E-006,Pass,Pass
 Warmup Convergence Information,VAV BOX HOT WATER-1,SizingPeriod: DENVER INTL AP ANN HTG 99.6% CONDNS DB,1.6212777186E-003,1.8654498511E-003,Pass,Pass,1.2592857361E-003,1.9574011636E-003,Pass,Pass
 Warmup Convergence Information,VAV BOX NO REHEAT-1,SizingPeriod: DENVER INTL AP ANN HTG 99.6% CONDNS DB,7.4892052944E-006,4.3825916541E-007,Pass,Pass,1.6991932704E-004,9.4467165591E-006,Pass,Pass
Environment,DENVER INTL AP ANN HTG WIND 99.6% CONDNS WS=>MCDB,SizingPeriod:DesignDay,12/21,12/21,WinterDesignDay,1,N/A,N/A,N/A,N/A,N/A,N/A
Environment:Daylight Saving,No,SizingPeriod:DesignDay
Environment:Design Day Data,1.80,0.00,DefaultMultipliers,83011,160,14.1,0.00,No,No
Environment:Design Day Misc,355,1232.8,0.1424,5.7719E-002,1.0,2.45,-23.5,ASHRAEClearSky
Environment:WarmupDays,  6
 Warmup Convergence Information,VAV BOX ELECTRIC-1,SizingPeriod: DENVER INTL AP ANN HTG WIND 99.6% CONDNS WS=>MCDB,4.3483735131E-014,3.2259934589E-014,Pass,Pass,2.4442902391E-004,1.5759705326E-005,Pass,Pass
 Warmup Convergence Information,VAV BOX FURNACE-1,SizingPeriod: DENVER INTL AP ANN HTG WIND 99.6% CONDNS WS=>MCDB,5.3253697748E-014,3.9158814504E-014,Pass,Pass,2.4009694898E-004,1.4929301911E-005,Pass,Pass
 Warmup Convergence Information,VAV BOX HOT WATER-1,SizingPeriod: DENVER INTL AP ANN HTG WIND 99.6% CONDNS WS=>MCDB,1.5804279132E-003,1.5133318793E-003,Pass,Pass,2.9588590540E-003,3.6906245742E-003,Pass,Pass
 Warmup Convergence Information,VAV BOX NO REHEAT-1,SizingPeriod: DENVER INTL AP ANN HTG WIND 99.6% CONDNS WS=>MCDB,1.1839032156E-005,8.1055579919E-007,Pass,Pass,2.7671314543E-004,1.7610349613E-005,Pass,Pass
Environment,DENVER INTL AP ANN HUM_N 99.6% CONDNS DP=>MCDB,SizingPeriod:DesignDay,12/21,12/21,WinterDesignDay,1,N/A,N/A,N/A,N/A,N/A,N/A
Environment:Daylight Saving,No,SizingPeriod:DesignDay
Environment:Design Day Data,-11.70,0.00,DefaultMultipliers,83011,160,3.3,0.00,No,No
Environment:Design Day Misc,355,1232.8,0.1424,5.7719E-002,1.0,2.45,-23.5,ASHRAEClearSky
Environment:WarmupDays,  6
 Warmup Convergence Information,VAV BOX ELECTRIC-1,SizingPeriod: DENVER INTL AP ANN HUM_N 99.6% CONDNS DP=>MCDB,3.5934218564E-014,2.4436314503E-014,Pass,Pass,1.7054321563E-004,1.1009492393E-005,Pass,Pass
 Warmup Convergence Information,VAV BOX FURNACE-1,SizingPeriod: DENVER INTL AP ANN HUM_N 99.6% CONDNS DP=>MCDB,3.7081449022E-014,2.8388441093E-014,Pass,Pass,1.6801997047E-004,1.0431997263E-005,Pass,Pass
 Warmup Convergence Information,VAV BOX HOT WATER-1,SizingPeriod: DENVER INTL AP ANN HUM_N 99.6% CONDNS DP=>MCDB,1.6223634251E-003,1.7798990405E-003,Pass,Pass,1.8350852202E-003,2.5233100034E-003,Pass,Pass
 Warmup Convergence Information,VAV BOX NO REHEAT-1,SizingPeriod: DENVER INTL AP ANN HUM_N 99.6% CONDNS DP=>MCDB,8.0609592684E-006,5.3744219027E-007,Pass,Pass,1.8584183262E-004,1.1692805775E-005,Pass,Pass
Environment,RUN PERIOD 1,WeatherFileRunPeriod,01/01/1997,12/31/1997,Wednesday,365,Use RunPeriod Specified Day,No,No,No,Yes,Yes
Environment:Daylight Saving,No,RunPeriod Object
Environment:WarmupDays,  6
 Warmup Convergence Information,VAV BOX ELECTRIC-1,RunPeriod: RUN PERIOD 1,0.2668063608,0.4928163719,Pass,Pass,0.2633384839,0.4894099031,Pass,Pass
 Warmup Convergence Information,VAV BOX FURNACE-1,RunPeriod: RUN PERIOD 1,0.2219190955,0.4108379537,Pass,Pass,1.8766351044,11.1594503682,Pass,Pass
 Warmup Convergence Information,VAV BOX HOT WATER-1,RunPeriod: RUN PERIOD 1,0.2532680587,0.4482795204,Pass,Pass,0.2734215197,0.4760477872,Pass,Pass
 Warmup Convergence Information,VAV BOX NO REHEAT-1,RunPeriod: RUN PERIOD 1,0.1205090478,0.2387454914,Pass,Pass,0.1892920497,0.4407945978,Pass,Pass
! <Program Control Information:Threads/Parallel Sims>, Threading Supported,Maximum Number of Threads, Env Set Threads (OMP_NUM_THREADS), EP Env Set Threads (EP_OMP_NUM_THREADS), IDF Set Threads, Number of Threads Used (Interior Radiant Exchange), Number Nominal Surfaces, Number Parallel Sims
Program Control:Threads/Parallel Sims, No,1, N/A, N/A, N/A, N/A, N/A, N/A
End of Data
