Program Version,EnergyPlus, Version 9.1.0-fafb9d5652, YMD=2020.04.08 17:02
! This file shows details about the branches, nodes, and other
! elements of the flow connections.
! This file is intended for use in "debugging" potential problems
! that may also be detected by the program, but may be more easily
! identified by "eye".
! This file is also intended to support software which draws a
! schematic diagram of the HVAC system.
! ===============================================================
! #Nodes,<Number of Unique Nodes>
 #Nodes,102
! <Node>,<NodeNumber>,<Node Name>,<Node Fluid Type>,<# Times Node Referenced After Definition>
 Node,1,NODE 21,Air,4
 Node,2,NODE 65,Air,2
 Node,3,NODE 29,Air,4
 Node,4,NODE 67,Air,2
 Node,5,NODE 42,Air,4
 Node,6,NODE 63,Air,2
 Node,7,NODE 55,Air,3
 Node,8,NODE 72,Air,3
 Node,9,NODE 71,Air,3
 Node,10,NODE 69,Air,2
 Node,11,NODE 18,Air,6
 Node,12,NODE 19,Air,3
 Node,13,NODE 52,Air,10
 Node,14,NODE 53,Air,3
 Node,15,NODE 26,Air,12
 Node,16,NODE 27,Air,3
 Node,17,NODE 39,Air,12
 Node,18,NODE 40,Air,3
 Node,19,NODE 17,Air,3
 Node,20,NODE 24,Air,6
 Node,21,NODE 49,Air,3
 Node,22,NODE 60,Air,5
 Node,23,NODE 59,Air,5
 Node,24,NODE 58,Air,8
 Node,25,NODE 25,Air,3
 Node,26,NODE 34,Air,6
 Node,27,NODE 33,Air,6
 Node,28,NODE 32,Air,9
 Node,29,NODE 36,Air,3
 Node,30,NODE 47,Air,6
 Node,31,NODE 46,Air,6
 Node,32,NODE 45,Air,9
 Node,33,NODE 9,Water,2
 Node,34,NODE 15,Water,1
 Node,35,NODE 11,Water,1
 Node,36,NODE 16,Water,1
 Node,37,CHW LOOP SUPPLY OUTLET PIPE NODE,Water,1
 Node,38,NODE 10,Water,4
 Node,39,NODE 12,Water,2
 Node,40,CHW LOOP DEMAND INLET PIPE NODE,Water,1
 Node,41,NODE 14,Water,2
 Node,42,NODE 75,Water,1
 Node,43,CHW LOOP DEMAND BYPASS PIPE INLET NODE,Water,1
 Node,44,CHW LOOP DEMAND BYPASS PIPE OUTLET NODE,Water,1
 Node,45,CHW LOOP DEMAND OUTLET PIPE NODE,Water,1
 Node,46,NODE 13,Water,2
 Node,47,NODE 1,Water,2
 Node,48,NODE 7,Water,1
 Node,49,NODE 3,Water,1
 Node,50,NODE 8,Water,1
 Node,51,HW LOOP SUPPLY OUTLET PIPE NODE,Water,1
 Node,52,NODE 2,Water,4
 Node,53,NODE 4,Water,2
 Node,54,HW LOOP DEMAND INLET PIPE NODE,Water,1
 Node,55,NODE 6,Water,1
 Node,56,NODE 62,Water,1
 Node,57,NODE 73,Water,2
 Node,58,NODE 74,Water,1
 Node,59,NODE 76,Water,2
 Node,60,NODE 77,Water,1
 Node,61,HW LOOP DEMAND BYPASS PIPE INLET NODE,Water,1
 Node,62,HW LOOP DEMAND BYPASS PIPE OUTLET NODE,Water,1
 Node,63,HW LOOP DEMAND OUTLET PIPE NODE,Water,1
 Node,64,NODE 5,Water,2
 Node,65,{FA387BA7-D799-4BD4-AC1F-DB3E8CD01E65},Air,0
 Node,66,{CCA845FA-F278-478E-9B6E-78671904018C},Air,0
 Node,67,{A0F44C4C-BFC2-49A6-B32C-8539496BA21C},Air,0
 Node,68,{0D8C41E8-C548-464A-A2B4-C831549EFCBA},Air,0
 Node,69,NODE 20,Air,2
 Node,70,NODE 54,Air,2
 Node,71,NODE 28,Air,2
 Node,72,NODE 41,Air,2
 Node,73,PTAC ELEC-1 OA NODE,Air,1
 Node,74,NODE 22,Air,2
 Node,75,NODE 56,Air,2
 Node,76,NODE 30,Air,2
 Node,77,NODE 43,Air,2
 Node,78,CHW LOOP CHILLER INLET NODE FOR CONDENSER,Air,1
 Node,79,MODEL OUTDOOR AIR NODE,Air,0
 Node,80,NODE 61,Air,3
 Node,81,NODE 35,Air,3
 Node,82,NODE 48,Air,3
 Node,83,NODE 37,Air,2
 Node,84,NODE 50,Air,2
 Node,85,NODE 66,Air,1
 Node,86,NODE 70,Air,1
 Node,87,NODE 68,Air,1
 Node,88,NODE 64,Air,1
 Node,89,VAV BOX ELECTRIC-1 1 DAMPER OUTLET,Air,1
 Node,90,VAV BOX FURNACE-1 1 DAMPER OUTLET,Air,1
 Node,91,VAV BOX HOT WATER-1 1 DAMPER OUTLET,Air,1
 Node,92,PTAC ELEC-1 COOLING COIL OUTLET NODE,Air,1
 Node,93,PTAC ELEC-1 HEATING COIL OUTLET NODE,Air,1
 Node,94,PTAC ELEC-1 MIXED AIR NODE,Air,1
 Node,95,PTAC ELEC-1 RELIEF AIR NODE,Air,0
 Node,96,NODE 23,Air,1
 Node,97,NODE 57,Air,1
 Node,98,NODE 38,Air,2
 Node,99,NODE 51,Air,2
 Node,100,NODE 31,Air,0
 Node,101,NODE 44,Air,0
 Node,102,CHW LOOP CHILLER OUTLET NODE FOR CONDENSER,Air,0
! ===============================================================
! Suspicious nodes have 0 references.  It is normal for some nodes, however.
! Listing nodes with 0 references (culled from previous list):
! <Suspicious Node>,<NodeNumber>,<Node Name>,<Node Fluid Type>,<# Times Node Referenced After Definition>
 Suspicious Node,65,{FA387BA7-D799-4BD4-AC1F-DB3E8CD01E65},Air,0
 Suspicious Node,66,{CCA845FA-F278-478E-9B6E-78671904018C},Air,0
 Suspicious Node,67,{A0F44C4C-BFC2-49A6-B32C-8539496BA21C},Air,0
 Suspicious Node,68,{0D8C41E8-C548-464A-A2B4-C831549EFCBA},Air,0
 Suspicious Node,79,MODEL OUTDOOR AIR NODE,Air,0
 Suspicious Node,95,PTAC ELEC-1 RELIEF AIR NODE,Air,0
 Suspicious Node,100,NODE 31,Air,0
 Suspicious Node,101,NODE 44,Air,0
 Suspicious Node,102,CHW LOOP CHILLER OUTLET NODE FOR CONDENSER,Air,0
! ===============================================================
! <#Branch Lists>,<Number of Branch Lists>
 #Branch Lists,8
! <Branch List>,<Branch List Count>,<Branch List Name>,<Loop Name>,<Loop Type>,<Number of Branches>
! <Branch>,<Branch Count>,<Branch Name>,<Loop Name>,<Loop Type>,<Branch Inlet Node Name>,<Branch Outlet Node Name>
 Branch List,1,ALL NONE SUPPLY BRANCHES,ALL NONE,Air,1
   Branch,1,ALL NONE MAIN BRANCH,ALL NONE,Air,NODE 17,NODE 18
 Branch List,2,DOAS NONEHWCHWHWVV SUPPLY BRANCHES,DOAS NONEHWCHWHWVV,Air,1
   Branch,1,DOAS NONEHWCHWHWVV MAIN BRANCH,DOAS NONEHWCHWHWVV,Air,NODE 49,NODE 52
 Branch List,3,ENTHELECACDXELECCV SUPPLY BRANCHES,ENTHELECACDXELECCV,Air,1
   Branch,1,ENTHELECACDXELECCV MAIN BRANCH,ENTHELECACDXELECCV,Air,NODE 25,NODE 26
 Branch List,4,SENSFURNACDXFURNCV SUPPLY BRANCHES,SENSFURNACDXFURNCV,Air,1
   Branch,1,SENSFURNACDXFURNCV MAIN BRANCH,SENSFURNACDXFURNCV,Air,NODE 36,NODE 39
 Branch List,5,CHW LOOP SUPPLY BRANCHES,CHW LOOP,Plant Supply,3
   Branch,1,CHW LOOP SUPPLY INLET BRANCH,CHW LOOP,Plant Supply,NODE 9,NODE 15
   Branch,2,CHW LOOP SUPPLY BRANCH 1,CHW LOOP,Plant Supply,NODE 11,NODE 16
   Branch,3,CHW LOOP SUPPLY OUTLET BRANCH,CHW LOOP,Plant Supply,CHW LOOP SUPPLY OUTLET PIPE NODE,NODE 10
 Branch List,6,CHW LOOP DEMAND BRANCHES,CHW LOOP,Plant Demand,4
   Branch,1,CHW LOOP DEMAND INLET BRANCH,CHW LOOP,Plant Demand,NODE 12,CHW LOOP DEMAND INLET PIPE NODE
   Branch,2,CHW LOOP DEMAND BRANCH 1,CHW LOOP,Plant Demand,NODE 14,NODE 75
   Branch,3,CHW LOOP DEMAND BYPASS BRANCH,CHW LOOP,Plant Demand,CHW LOOP DEMAND BYPASS PIPE INLET NODE,CHW LOOP DEMAND BYPASS PIPE OUTLET NODE
   Branch,4,CHW LOOP DEMAND OUTLET BRANCH,CHW LOOP,Plant Demand,CHW LOOP DEMAND OUTLET PIPE NODE,NODE 13
 Branch List,7,HW LOOP SUPPLY BRANCHES,HW LOOP,Plant Supply,3
   Branch,1,HW LOOP SUPPLY INLET BRANCH,HW LOOP,Plant Supply,NODE 1,NODE 7
   Branch,2,HW LOOP SUPPLY BRANCH 1,HW LOOP,Plant Supply,NODE 3,NODE 8
   Branch,3,HW LOOP SUPPLY OUTLET BRANCH,HW LOOP,Plant Supply,HW LOOP SUPPLY OUTLET PIPE NODE,NODE 2
 Branch List,8,HW LOOP DEMAND BRANCHES,HW LOOP,Plant Demand,6
   Branch,1,HW LOOP DEMAND INLET BRANCH,HW LOOP,Plant Demand,NODE 4,HW LOOP DEMAND INLET PIPE NODE
   Branch,2,HW LOOP DEMAND BRANCH 1,HW LOOP,Plant Demand,NODE 6,NODE 62
   Branch,3,HW LOOP DEMAND BRANCH 2,HW LOOP,Plant Demand,NODE 73,NODE 74
   Branch,4,HW LOOP DEMAND BRANCH 3,HW LOOP,Plant Demand,NODE 76,NODE 77
   Branch,5,HW LOOP DEMAND BYPASS BRANCH,HW LOOP,Plant Demand,HW LOOP DEMAND BYPASS PIPE INLET NODE,HW LOOP DEMAND BYPASS PIPE OUTLET NODE
   Branch,6,HW LOOP DEMAND OUTLET BRANCH,HW LOOP,Plant Demand,HW LOOP DEMAND OUTLET PIPE NODE,NODE 5
! ===============================================================
! <#Supply Air Paths>,<Number of Supply Air Paths>
 #Supply Air Paths,4
! <Supply Air Path>,<Supply Air Path Count>,<Supply Air Path Name>,<AirLoopHVAC Name>
! <#Components on Supply Air Path>,<Number of Components>
! <Supply Air Path Component>,<Component Count>,<Component Type>,<Component Name>,<AirLoopHVAC Name>
! <#Outlet Nodes on Supply Air Path Component>,<Number of Nodes>
! <Supply Air Path Component Nodes>,<Node Count>,<Component Type>,<Component Name>,<Inlet Node Name>,<Outlet Node Name>,<AirLoopHVAC Name>
 Supply Air Path,1,ALL NONE NODE 19 SUPPLY PATH,ALL NONE
   #Components on Supply Air Path,1
   Supply Air Path Component,1,AIRLOOPHVAC:ZONESPLITTER,AIR LOOP HVAC ZONE SPLITTER 1,ALL NONE
     #Outlet Nodes on Supply Air Path Component,1
     Supply Air Path Component Nodes,1,AIRLOOPHVAC:ZONESPLITTER,AIR LOOP HVAC ZONE SPLITTER 1,NODE 19,NODE 66,ALL NONE
! <#Nodes on Supply Air Path>,<Number of Nodes>
! <Supply Air Path Node>,<Node Type>,<Node Count>,<Node Name>,<AirLoopHVAC Name>
#Nodes on Supply Air Path,2
   Supply Air Path Node,Inlet Node,1,NODE 19,ALL NONE
   Supply Air Path Node,Outlet Node,2,NODE 66,ALL NONE
 Supply Air Path,2,DOAS NONEHWCHWHWVV NODE 53 SUPPLY PATH,DOAS NONEHWCHWHWVV
   #Components on Supply Air Path,1
   Supply Air Path Component,1,AIRLOOPHVAC:ZONESPLITTER,AIR LOOP HVAC ZONE SPLITTER 4,DOAS NONEHWCHWHWVV
     #Outlet Nodes on Supply Air Path Component,1
     Supply Air Path Component Nodes,1,AIRLOOPHVAC:ZONESPLITTER,AIR LOOP HVAC ZONE SPLITTER 4,NODE 53,NODE 70,DOAS NONEHWCHWHWVV
! <#Nodes on Supply Air Path>,<Number of Nodes>
! <Supply Air Path Node>,<Node Type>,<Node Count>,<Node Name>,<AirLoopHVAC Name>
#Nodes on Supply Air Path,2
   Supply Air Path Node,Inlet Node,1,NODE 53,DOAS NONEHWCHWHWVV
   Supply Air Path Node,Outlet Node,2,NODE 70,DOAS NONEHWCHWHWVV
 Supply Air Path,3,ENTHELECACDXELECCV NODE 27 SUPPLY PATH,ENTHELECACDXELECCV
   #Components on Supply Air Path,1
   Supply Air Path Component,1,AIRLOOPHVAC:ZONESPLITTER,AIR LOOP HVAC ZONE SPLITTER 2,ENTHELECACDXELECCV
     #Outlet Nodes on Supply Air Path Component,1
     Supply Air Path Component Nodes,1,AIRLOOPHVAC:ZONESPLITTER,AIR LOOP HVAC ZONE SPLITTER 2,NODE 27,NODE 68,ENTHELECACDXELECCV
! <#Nodes on Supply Air Path>,<Number of Nodes>
! <Supply Air Path Node>,<Node Type>,<Node Count>,<Node Name>,<AirLoopHVAC Name>
#Nodes on Supply Air Path,2
   Supply Air Path Node,Inlet Node,1,NODE 27,ENTHELECACDXELECCV
   Supply Air Path Node,Outlet Node,2,NODE 68,ENTHELECACDXELECCV
 Supply Air Path,4,SENSFURNACDXFURNCV NODE 40 SUPPLY PATH,SENSFURNACDXFURNCV
   #Components on Supply Air Path,1
   Supply Air Path Component,1,AIRLOOPHVAC:ZONESPLITTER,AIR LOOP HVAC ZONE SPLITTER 3,SENSFURNACDXFURNCV
     #Outlet Nodes on Supply Air Path Component,1
     Supply Air Path Component Nodes,1,AIRLOOPHVAC:ZONESPLITTER,AIR LOOP HVAC ZONE SPLITTER 3,NODE 40,NODE 64,SENSFURNACDXFURNCV
! <#Nodes on Supply Air Path>,<Number of Nodes>
! <Supply Air Path Node>,<Node Type>,<Node Count>,<Node Name>,<AirLoopHVAC Name>
#Nodes on Supply Air Path,2
   Supply Air Path Node,Inlet Node,1,NODE 40,SENSFURNACDXFURNCV
   Supply Air Path Node,Outlet Node,2,NODE 64,SENSFURNACDXFURNCV
! ===============================================================
! <#Return Air Paths>,<Number of Return Air Paths>
 #Return Air Paths,4
! <Return Air Path>,<Return Air Path Count>,<Return Air Path Name>,<AirLoopHVAC Name>
! <#Components on Return Air Path>,<Number of Components>
! <Return Air Path Component>,<Component Count>,<Component Type>,<Component Name>,<AirLoopHVAC Name>
! <#Inlet Nodes on Return Air Path Component>,<Number of Nodes>
! <Return Air Path Component Nodes>,<Node Count>,<Component Type>,<Component Name>,<Inlet Node Name>,<Outlet Node Name>,<AirLoopHVAC Name>
 Return Air Path,1,ALL NONE RETURN PATH,ALL NONE
   #Components on Return Air Path,1
   Return Air Path Component,1,AIRLOOPHVAC:ZONEMIXER,AIR LOOP HVAC ZONE MIXER 1,ALL NONE
     #Inlet Nodes on Return Air Path Component,1
     Return Air Path Component Nodes,1,AIRLOOPHVAC:ZONEMIXER,AIR LOOP HVAC ZONE MIXER 1,NODE 65,NODE 20,ALL NONE
! <#Nodes on Return Air Path>,<Number of Nodes>
! <Return Air Path Node>,<Node Type>,<Node Count>,<Node Name>,<AirLoopHVAC Name>
   #Nodes on Return Air Path,2
   Return Air Path Node,Outlet Node,1,NODE 20,ALL NONE
   Return Air Path Node,Inlet Node,2,NODE 65,ALL NONE
 Return Air Path,2,DOAS NONEHWCHWHWVV RETURN PATH,DOAS NONEHWCHWHWVV
   #Components on Return Air Path,1
   Return Air Path Component,1,AIRLOOPHVAC:ZONEMIXER,AIR LOOP HVAC ZONE MIXER 4,DOAS NONEHWCHWHWVV
     #Inlet Nodes on Return Air Path Component,1
     Return Air Path Component Nodes,1,AIRLOOPHVAC:ZONEMIXER,AIR LOOP HVAC ZONE MIXER 4,NODE 69,NODE 54,DOAS NONEHWCHWHWVV
! <#Nodes on Return Air Path>,<Number of Nodes>
! <Return Air Path Node>,<Node Type>,<Node Count>,<Node Name>,<AirLoopHVAC Name>
   #Nodes on Return Air Path,2
   Return Air Path Node,Outlet Node,1,NODE 54,DOAS NONEHWCHWHWVV
   Return Air Path Node,Inlet Node,2,NODE 69,DOAS NONEHWCHWHWVV
 Return Air Path,3,ENTHELECACDXELECCV RETURN PATH,ENTHELECACDXELECCV
   #Components on Return Air Path,1
   Return Air Path Component,1,AIRLOOPHVAC:ZONEMIXER,AIR LOOP HVAC ZONE MIXER 2,ENTHELECACDXELECCV
     #Inlet Nodes on Return Air Path Component,1
     Return Air Path Component Nodes,1,AIRLOOPHVAC:ZONEMIXER,AIR LOOP HVAC ZONE MIXER 2,NODE 67,NODE 28,ENTHELECACDXELECCV
! <#Nodes on Return Air Path>,<Number of Nodes>
! <Return Air Path Node>,<Node Type>,<Node Count>,<Node Name>,<AirLoopHVAC Name>
   #Nodes on Return Air Path,2
   Return Air Path Node,Outlet Node,1,NODE 28,ENTHELECACDXELECCV
   Return Air Path Node,Inlet Node,2,NODE 67,ENTHELECACDXELECCV
 Return Air Path,4,SENSFURNACDXFURNCV RETURN PATH,SENSFURNACDXFURNCV
   #Components on Return Air Path,1
   Return Air Path Component,1,AIRLOOPHVAC:ZONEMIXER,AIR LOOP HVAC ZONE MIXER 3,SENSFURNACDXFURNCV
     #Inlet Nodes on Return Air Path Component,1
     Return Air Path Component Nodes,1,AIRLOOPHVAC:ZONEMIXER,AIR LOOP HVAC ZONE MIXER 3,NODE 63,NODE 41,SENSFURNACDXFURNCV
! <#Nodes on Return Air Path>,<Number of Nodes>
! <Return Air Path Node>,<Node Type>,<Node Count>,<Node Name>,<AirLoopHVAC Name>
   #Nodes on Return Air Path,2
   Return Air Path Node,Outlet Node,1,NODE 41,SENSFURNACDXFURNCV
   Return Air Path Node,Inlet Node,2,NODE 63,SENSFURNACDXFURNCV
! ===============================================================
! #Outdoor Air Nodes,<Number of Outdoor Air Nodes>
 #Outdoor Air Nodes,7
! <Outdoor Air Node>,<NodeNumber>,<Node Name>
 Outdoor Air Node,73,PTAC ELEC-1 OA NODE
 Outdoor Air Node,74,NODE 22
 Outdoor Air Node,75,NODE 56
 Outdoor Air Node,76,NODE 30
 Outdoor Air Node,77,NODE 43
 Outdoor Air Node,78,CHW LOOP CHILLER INLET NODE FOR CONDENSER
 Outdoor Air Node,79,MODEL OUTDOOR AIR NODE
! ===============================================================
! <#Component Sets>,<Number of Component Sets>
 #Component Sets,52
! <Component Set>,<Component Set Count>,<Parent Object Type>,<Parent Object Name>,<Component Type>,<Component Name>,<Inlet Node ID>,<Outlet Node ID>,<Description>
 Component Set,1,BRANCH,ALL NONE MAIN BRANCH,AIRLOOPHVAC:OUTDOORAIRSYSTEM,ALL NONE OUTDOOR AIR SYSTEM,NODE 17,NODE 24,Air Nodes
 Component Set,2,BRANCH,ALL NONE MAIN BRANCH,FAN:VARIABLEVOLUME,ALL NONE SUPPLY FAN,NODE 24,NODE 18,Air Nodes
 Component Set,3,BRANCH,DOAS NONEHWCHWHWVV MAIN BRANCH,AIRLOOPHVAC:OUTDOORAIRSYSTEM,DOAS NONEHWCHWHWVV OUTDOOR AIR SYSTEM,NODE 49,NODE 60,Air Nodes
 Component Set,4,BRANCH,DOAS NONEHWCHWHWVV MAIN BRANCH,COIL:COOLING:WATER,DOAS NONEHWCHWHWVV COOLING COIL,NODE 60,NODE 59,Air Nodes
 Component Set,5,BRANCH,DOAS NONEHWCHWHWVV MAIN BRANCH,COIL:HEATING:WATER,DOAS NONEHWCHWHWVV HEATING COIL,NODE 59,NODE 58,Air Nodes
 Component Set,6,BRANCH,DOAS NONEHWCHWHWVV MAIN BRANCH,FAN:VARIABLEVOLUME,DOAS NONEHWCHWHWVV SUPPLY FAN,NODE 58,NODE 52,Air Nodes
 Component Set,7,BRANCH,ENTHELECACDXELECCV MAIN BRANCH,AIRLOOPHVAC:OUTDOORAIRSYSTEM,ENTHELECACDXELECCV OUTDOOR AIR SYSTEM,NODE 25,NODE 34,Air Nodes
 Component Set,8,BRANCH,ENTHELECACDXELECCV MAIN BRANCH,COILSYSTEM:COOLING:DX,ENTHELECACDXELECCV COOLING COIL COILSYSTEM,NODE 34,NODE 33,Air Nodes
 Component Set,9,BRANCH,ENTHELECACDXELECCV MAIN BRANCH,COIL:HEATING:ELECTRIC,ENTHELECACDXELECCV HEATING COIL,NODE 33,NODE 32,Air Nodes
 Component Set,10,BRANCH,ENTHELECACDXELECCV MAIN BRANCH,FAN:VARIABLEVOLUME,ENTHELECACDXELECCV SUPPLY FAN,NODE 32,NODE 26,Air Nodes
 Component Set,11,BRANCH,SENSFURNACDXFURNCV MAIN BRANCH,AIRLOOPHVAC:OUTDOORAIRSYSTEM,SENSFURNACDXFURNCV OUTDOOR AIR SYSTEM,NODE 36,NODE 47,Air Nodes
 Component Set,12,BRANCH,SENSFURNACDXFURNCV MAIN BRANCH,COILSYSTEM:COOLING:DX,SENSFURNACDXFURNCV COOLING COIL COILSYSTEM,NODE 47,NODE 46,Air Nodes
 Component Set,13,BRANCH,SENSFURNACDXFURNCV MAIN BRANCH,COIL:HEATING:FUEL,SENSFURNACDXFURNCV HEATING COIL,NODE 46,NODE 45,Air Nodes
 Component Set,14,BRANCH,SENSFURNACDXFURNCV MAIN BRANCH,FAN:VARIABLEVOLUME,SENSFURNACDXFURNCV SUPPLY FAN,NODE 45,NODE 39,Air Nodes
 Component Set,15,BRANCH,CHW LOOP SUPPLY INLET BRANCH,PUMP:VARIABLESPEED,CHW LOOP PUMP,NODE 9,NODE 15,Water Nodes
 Component Set,16,BRANCH,CHW LOOP SUPPLY BRANCH 1,CHILLER:ELECTRIC:EIR,CHW LOOP CHILLER,NODE 11,NODE 16,Chilled Water Nodes
 Component Set,17,BRANCH,CHW LOOP SUPPLY OUTLET BRANCH,PIPE:ADIABATIC,CHW LOOP SUPPLY OUTLET PIPE,CHW LOOP SUPPLY OUTLET PIPE NODE,NODE 10,Pipe Nodes
 Component Set,18,BRANCH,CHW LOOP DEMAND INLET BRANCH,PIPE:ADIABATIC,CHW LOOP DEMAND INLET PIPE,NODE 12,CHW LOOP DEMAND INLET PIPE NODE,Pipe Nodes
 Component Set,19,BRANCH,CHW LOOP DEMAND BRANCH 1,COIL:COOLING:WATER,DOAS NONEHWCHWHWVV COOLING COIL,NODE 14,NODE 75,Water Nodes
 Component Set,20,BRANCH,CHW LOOP DEMAND BYPASS BRANCH,PIPE:ADIABATIC,CHW LOOP DEMAND BYPASS PIPE,CHW LOOP DEMAND BYPASS PIPE INLET NODE,CHW LOOP DEMAND BYPASS PIPE OUTLET NODE,Pipe Nodes
 Component Set,21,BRANCH,CHW LOOP DEMAND OUTLET BRANCH,PIPE:ADIABATIC,CHW LOOP DEMAND OUTLET PIPE,CHW LOOP DEMAND OUTLET PIPE NODE,NODE 13,Pipe Nodes
 Component Set,22,BRANCH,HW LOOP SUPPLY INLET BRANCH,PUMP:VARIABLESPEED,HW LOOP PUMP,NODE 1,NODE 7,Water Nodes
 Component Set,23,BRANCH,HW LOOP SUPPLY BRANCH 1,BOILER:HOTWATER,HW LOOP BOILER,NODE 3,NODE 8,Hot Water Nodes
 Component Set,24,BRANCH,HW LOOP SUPPLY OUTLET BRANCH,PIPE:ADIABATIC,HW LOOP SUPPLY OUTLET PIPE,HW LOOP SUPPLY OUTLET PIPE NODE,NODE 2,Pipe Nodes
 Component Set,25,BRANCH,HW LOOP DEMAND INLET BRANCH,PIPE:ADIABATIC,HW LOOP DEMAND INLET PIPE,NODE 4,HW LOOP DEMAND INLET PIPE NODE,Pipe Nodes
 Component Set,26,BRANCH,HW LOOP DEMAND BRANCH 1,COIL:HEATING:WATER,VAV BOX HOT WATER-1 HEATING COIL,NODE 6,NODE 62,Water Nodes
 Component Set,27,BRANCH,HW LOOP DEMAND BRANCH 2,COIL:HEATING:WATER,DOAS NONEHWCHWHWVV PREHEAT COIL,NODE 73,NODE 74,Water Nodes
 Component Set,28,BRANCH,HW LOOP DEMAND BRANCH 3,COIL:HEATING:WATER,DOAS NONEHWCHWHWVV HEATING COIL,NODE 76,NODE 77,Water Nodes
 Component Set,29,BRANCH,HW LOOP DEMAND BYPASS BRANCH,PIPE:ADIABATIC,HW LOOP DEMAND BYPASS PIPE,HW LOOP DEMAND BYPASS PIPE INLET NODE,HW LOOP DEMAND BYPASS PIPE OUTLET NODE,Pipe Nodes
 Component Set,30,BRANCH,HW LOOP DEMAND OUTLET BRANCH,PIPE:ADIABATIC,HW LOOP DEMAND OUTLET PIPE,HW LOOP DEMAND OUTLET PIPE NODE,NODE 5,Pipe Nodes
 Component Set,31,ZONEHVAC:AIRDISTRIBUTIONUNIT,ADU VAV BOX ELECTRIC-1 1,AIRTERMINAL:SINGLEDUCT:VAV:REHEAT,VAV BOX ELECTRIC-1 1,NODE 66,NODE 21,Air Nodes
 Component Set,32,ZONEHVAC:AIRDISTRIBUTIONUNIT,ADU VAV BOX FURNACE-1 1,AIRTERMINAL:SINGLEDUCT:VAV:REHEAT,VAV BOX FURNACE-1 1,NODE 68,NODE 29,Air Nodes
 Component Set,33,ZONEHVAC:AIRDISTRIBUTIONUNIT,ADU VAV BOX HOT WATER-1 1,AIRTERMINAL:SINGLEDUCT:VAV:REHEAT,VAV BOX HOT WATER-1 1,NODE 64,NODE 42,Air Nodes
 Component Set,34,ZONEHVAC:AIRDISTRIBUTIONUNIT,ADU VAV BOX NO REHEAT-1 1,AIRTERMINAL:SINGLEDUCT:VAV:NOREHEAT,VAV BOX NO REHEAT-1 1,NODE 70,NODE 55,Air Nodes
 Component Set,35,AIRTERMINAL:SINGLEDUCT:VAV:REHEAT,VAV BOX ELECTRIC-1 1,COIL:HEATING:ELECTRIC,VAV BOX ELECTRIC-1 HEATING COIL,VAV BOX ELECTRIC-1 1 DAMPER OUTLET,NODE 21,Air Nodes
 Component Set,36,AIRTERMINAL:SINGLEDUCT:VAV:REHEAT,VAV BOX FURNACE-1 1,COIL:HEATING:FUEL,VAV BOX FURNACE-1 HEATING COIL,VAV BOX FURNACE-1 1 DAMPER OUTLET,NODE 29,Air Nodes
 Component Set,37,AIRTERMINAL:SINGLEDUCT:VAV:REHEAT,VAV BOX HOT WATER-1 1,COIL:HEATING:WATER,VAV BOX HOT WATER-1 HEATING COIL,VAV BOX HOT WATER-1 1 DAMPER OUTLET,NODE 42,Air Nodes
 Component Set,38,AIRLOOPHVAC:OUTDOORAIRSYSTEM,DOAS NONEHWCHWHWVV OUTDOOR AIR SYSTEM,COIL:HEATING:WATER,DOAS NONEHWCHWHWVV PREHEAT COIL,NODE 56,NODE 61,Air Nodes
 Component Set,39,ZONEHVAC:PACKAGEDTERMINALAIRCONDITIONER,PTAC ELEC-1,COIL:HEATING:ELECTRIC,PTAC ELEC-1 HEATING COIL,PTAC ELEC-1 COOLING COIL OUTLET NODE,PTAC ELEC-1 HEATING COIL OUTLET NODE,Air Nodes
 Component Set,40,AIRLOOPHVAC:OUTDOORAIRSYSTEM,ENTHELECACDXELECCV OUTDOOR AIR SYSTEM,COIL:HEATING:ELECTRIC,ENTHELECACDXELECCV PREHEAT COIL,NODE 30,NODE 35,Air Nodes
 Component Set,41,AIRLOOPHVAC:OUTDOORAIRSYSTEM,SENSFURNACDXFURNCV OUTDOOR AIR SYSTEM,COIL:HEATING:FUEL,SENSFURNACDXFURNCV PREHEAT COIL,NODE 43,NODE 48,Air Nodes
 Component Set,42,AIRLOOPHVAC:OUTDOORAIRSYSTEM,ALL NONE OUTDOOR AIR SYSTEM,OUTDOORAIR:MIXER,ALL NONE OUTDOOR AIR SYSTEM OUTDOOR AIR MIXER,NODE 22,NODE 24,Air Nodes
 Component Set,43,AIRLOOPHVAC:OUTDOORAIRSYSTEM,DOAS NONEHWCHWHWVV OUTDOOR AIR SYSTEM,OUTDOORAIR:MIXER,DOAS NONEHWCHWHWVV OUTDOOR AIR SYSTEM OUTDOOR AIR MIXER,NODE 61,NODE 60,Air Nodes
 Component Set,44,AIRLOOPHVAC:OUTDOORAIRSYSTEM,ENTHELECACDXELECCV OUTDOOR AIR SYSTEM,HEATEXCHANGER:AIRTOAIR:SENSIBLEANDLATENT,ENTHELECACDXELECCV HEAT EXCHANGER,NODE 35,NODE 37,Process Air Nodes
 Component Set,45,AIRLOOPHVAC:OUTDOORAIRSYSTEM,ENTHELECACDXELECCV OUTDOOR AIR SYSTEM,OUTDOORAIR:MIXER,ENTHELECACDXELECCV OUTDOOR AIR SYSTEM OUTDOOR AIR MIXER,NODE 37,NODE 34,Air Nodes
 Component Set,46,AIRLOOPHVAC:OUTDOORAIRSYSTEM,SENSFURNACDXFURNCV OUTDOOR AIR SYSTEM,HEATEXCHANGER:AIRTOAIR:SENSIBLEANDLATENT,SENSFURNACDXFURNCV HEAT EXCHANGER,NODE 48,NODE 50,Process Air Nodes
 Component Set,47,AIRLOOPHVAC:OUTDOORAIRSYSTEM,SENSFURNACDXFURNCV OUTDOOR AIR SYSTEM,OUTDOORAIR:MIXER,SENSFURNACDXFURNCV OUTDOOR AIR SYSTEM OUTDOOR AIR MIXER,NODE 50,NODE 47,Air Nodes
 Component Set,48,ZONEHVAC:PACKAGEDTERMINALAIRCONDITIONER,PTAC ELEC-1,OUTDOORAIR:MIXER,PTAC ELEC-1 OA MIXER,PTAC ELEC-1 OA NODE,PTAC ELEC-1 MIXED AIR NODE,Air Nodes
 Component Set,49,ZONEHVAC:PACKAGEDTERMINALAIRCONDITIONER,PTAC ELEC-1,FAN:CONSTANTVOLUME,PTAC ELEC-1 + FAN,PTAC ELEC-1 HEATING COIL OUTLET NODE,NODE 72,Air Nodes
 Component Set,50,ZONEHVAC:PACKAGEDTERMINALAIRCONDITIONER,PTAC ELEC-1,COIL:COOLING:DX:SINGLESPEED,PTAC ELEC-1 + COOLING COIL,PTAC ELEC-1 MIXED AIR NODE,PTAC ELEC-1 COOLING COIL OUTLET NODE,Air Nodes
 Component Set,51,COILSYSTEM:COOLING:DX,ENTHELECACDXELECCV COOLING COIL COILSYSTEM,COIL:COOLING:DX:SINGLESPEED,ENTHELECACDXELECCV COOLING COIL,NODE 34,NODE 33,Air Nodes
 Component Set,52,COILSYSTEM:COOLING:DX,SENSFURNACDXFURNCV COOLING COIL COILSYSTEM,COIL:COOLING:DX:SINGLESPEED,SENSFURNACDXFURNCV COOLING COIL,NODE 47,NODE 46,Air Nodes
! ===============================================================
! <# Plant Loops>,<Number of Plant Loops>
 #Plant Loops,2
! <Plant Loop>,<Plant Loop Name>,<Loop Type>,<Inlet Node Name>,<Outlet Node Name>,<Branch List>,<Connector List>
! <Plant Loop Connector>,<Connector Type>,<Connector Name>,<Loop Name>,<Loop Type>,<Number of Inlets/Outlets>
! <Plant Loop Connector Branches>,<Connector Node Count>,<Connector Type>,<Connector Name>,<Inlet Branch>,<Outlet Branch>,<Loop Name>,<Loop Type>
! <Plant Loop Connector Nodes>,<Connector Node Count>,<Connector Type>,<Connector Name>,<Inlet Node>,<Outlet Node>,<Loop Name>,<Loop Type>
! <Plant Loop Supply Connection>,<Plant Loop Name>,<Supply Side Outlet Node Name>,<Demand Side Inlet Node Name>
! <Plant Loop Return Connection>,<Plant Loop Name>,<Demand Side Outlet Node Name>,<Supply Side Inlet Node Name>
 Plant Loop,CHW LOOP,Demand,NODE 12,NODE 13,CHW LOOP DEMAND BRANCHES,CHW LOOP DEMAND CONNECTOR LIST
   Plant Loop Connector,Splitter,CHW LOOP DEMAND SPLITTER,CHW LOOP,Demand,2
     Plant Loop Connector Branches,1,Splitter,CHW LOOP DEMAND SPLITTER,CHW LOOP DEMAND INLET BRANCH,CHW LOOP DEMAND BRANCH 1,CHW LOOP,Demand
     Plant Loop Connector Nodes,   1,Splitter,CHW LOOP DEMAND SPLITTER,CHW LOOP DEMAND INLET PIPE NODE,NODE 14,CHW LOOP,Demand
     Plant Loop Connector Branches,2,Splitter,CHW LOOP DEMAND SPLITTER,CHW LOOP DEMAND INLET BRANCH,CHW LOOP DEMAND BYPASS BRANCH,CHW LOOP,Demand
     Plant Loop Connector Nodes,   2,Splitter,CHW LOOP DEMAND SPLITTER,CHW LOOP DEMAND INLET PIPE NODE,CHW LOOP DEMAND BYPASS PIPE INLET NODE,CHW LOOP,Demand
   Plant Loop Connector,Mixer,CHW LOOP DEMAND MIXER,CHW LOOP,Demand,2
     Plant Loop Connector Branches,1,Mixer,CHW LOOP DEMAND MIXER,CHW LOOP DEMAND BRANCH 1,CHW LOOP DEMAND OUTLET BRANCH,CHW LOOP,Demand
     Plant Loop Connector Nodes,   1,Mixer,CHW LOOP DEMAND MIXER,NODE 75,CHW LOOP DEMAND OUTLET PIPE NODE,CHW LOOP,Demand
     Plant Loop Connector Branches,2,Mixer,CHW LOOP DEMAND MIXER,CHW LOOP DEMAND BYPASS BRANCH,CHW LOOP DEMAND OUTLET BRANCH,CHW LOOP,Demand
     Plant Loop Connector Nodes,   2,Mixer,CHW LOOP DEMAND MIXER,CHW LOOP DEMAND BYPASS PIPE OUTLET NODE,CHW LOOP DEMAND OUTLET PIPE NODE,CHW LOOP,Demand
 Plant Loop,CHW LOOP,Supply,NODE 9,NODE 10,CHW LOOP SUPPLY BRANCHES,CHW LOOP SUPPLY CONNECTOR LIST
   Plant Loop Connector,Splitter,CHW LOOP SUPPLY SPLITTER,CHW LOOP,Supply,1
     Plant Loop Connector Branches,1,Splitter,CHW LOOP SUPPLY SPLITTER,CHW LOOP SUPPLY INLET BRANCH,CHW LOOP SUPPLY BRANCH 1,CHW LOOP,Supply
     Plant Loop Connector Nodes,   1,Splitter,CHW LOOP SUPPLY SPLITTER,NODE 15,NODE 11,CHW LOOP,Supply
   Plant Loop Connector,Mixer,CHW LOOP SUPPLY MIXER,CHW LOOP,Supply,1
     Plant Loop Connector Branches,1,Mixer,CHW LOOP SUPPLY MIXER,CHW LOOP SUPPLY BRANCH 1,CHW LOOP SUPPLY OUTLET BRANCH,CHW LOOP,Supply
     Plant Loop Connector Nodes,   1,Mixer,CHW LOOP SUPPLY MIXER,NODE 16,CHW LOOP SUPPLY OUTLET PIPE NODE,CHW LOOP,Supply
 Plant Loop Supply Connection,CHW LOOP,NODE 10,NODE 12
 Plant Loop Return Connection,CHW LOOP,NODE 13,NODE 9
 Plant Loop,HW LOOP,Demand,NODE 4,NODE 5,HW LOOP DEMAND BRANCHES,HW LOOP DEMAND CONNECTOR LIST
   Plant Loop Connector,Splitter,HW LOOP DEMAND SPLITTER,HW LOOP,Demand,4
     Plant Loop Connector Branches,1,Splitter,HW LOOP DEMAND SPLITTER,HW LOOP DEMAND INLET BRANCH,HW LOOP DEMAND BRANCH 1,HW LOOP,Demand
     Plant Loop Connector Nodes,   1,Splitter,HW LOOP DEMAND SPLITTER,HW LOOP DEMAND INLET PIPE NODE,NODE 6,HW LOOP,Demand
     Plant Loop Connector Branches,2,Splitter,HW LOOP DEMAND SPLITTER,HW LOOP DEMAND INLET BRANCH,HW LOOP DEMAND BRANCH 2,HW LOOP,Demand
     Plant Loop Connector Nodes,   2,Splitter,HW LOOP DEMAND SPLITTER,HW LOOP DEMAND INLET PIPE NODE,NODE 73,HW LOOP,Demand
     Plant Loop Connector Branches,3,Splitter,HW LOOP DEMAND SPLITTER,HW LOOP DEMAND INLET BRANCH,HW LOOP DEMAND BRANCH 3,HW LOOP,Demand
     Plant Loop Connector Nodes,   3,Splitter,HW LOOP DEMAND SPLITTER,HW LOOP DEMAND INLET PIPE NODE,NODE 76,HW LOOP,Demand
     Plant Loop Connector Branches,4,Splitter,HW LOOP DEMAND SPLITTER,HW LOOP DEMAND INLET BRANCH,HW LOOP DEMAND BYPASS BRANCH,HW LOOP,Demand
     Plant Loop Connector Nodes,   4,Splitter,HW LOOP DEMAND SPLITTER,HW LOOP DEMAND INLET PIPE NODE,HW LOOP DEMAND BYPASS PIPE INLET NODE,HW LOOP,Demand
   Plant Loop Connector,Mixer,HW LOOP DEMAND MIXER,HW LOOP,Demand,4
     Plant Loop Connector Branches,1,Mixer,HW LOOP DEMAND MIXER,HW LOOP DEMAND BRANCH 1,HW LOOP DEMAND OUTLET BRANCH,HW LOOP,Demand
     Plant Loop Connector Nodes,   1,Mixer,HW LOOP DEMAND MIXER,NODE 62,HW LOOP DEMAND OUTLET PIPE NODE,HW LOOP,Demand
     Plant Loop Connector Branches,2,Mixer,HW LOOP DEMAND MIXER,HW LOOP DEMAND BRANCH 2,HW LOOP DEMAND OUTLET BRANCH,HW LOOP,Demand
     Plant Loop Connector Nodes,   2,Mixer,HW LOOP DEMAND MIXER,NODE 74,HW LOOP DEMAND OUTLET PIPE NODE,HW LOOP,Demand
     Plant Loop Connector Branches,3,Mixer,HW LOOP DEMAND MIXER,HW LOOP DEMAND BRANCH 3,HW LOOP DEMAND OUTLET BRANCH,HW LOOP,Demand
     Plant Loop Connector Nodes,   3,Mixer,HW LOOP DEMAND MIXER,NODE 77,HW LOOP DEMAND OUTLET PIPE NODE,HW LOOP,Demand
     Plant Loop Connector Branches,4,Mixer,HW LOOP DEMAND MIXER,HW LOOP DEMAND BYPASS BRANCH,HW LOOP DEMAND OUTLET BRANCH,HW LOOP,Demand
     Plant Loop Connector Nodes,   4,Mixer,HW LOOP DEMAND MIXER,HW LOOP DEMAND BYPASS PIPE OUTLET NODE,HW LOOP DEMAND OUTLET PIPE NODE,HW LOOP,Demand
 Plant Loop,HW LOOP,Supply,NODE 1,NODE 2,HW LOOP SUPPLY BRANCHES,HW LOOP SUPPLY CONNECTOR LIST
   Plant Loop Connector,Splitter,HW LOOP SUPPLY SPLITTER,HW LOOP,Supply,1
     Plant Loop Connector Branches,1,Splitter,HW LOOP SUPPLY SPLITTER,HW LOOP SUPPLY INLET BRANCH,HW LOOP SUPPLY BRANCH 1,HW LOOP,Supply
     Plant Loop Connector Nodes,   1,Splitter,HW LOOP SUPPLY SPLITTER,NODE 7,NODE 3,HW LOOP,Supply
   Plant Loop Connector,Mixer,HW LOOP SUPPLY MIXER,HW LOOP,Supply,1
     Plant Loop Connector Branches,1,Mixer,HW LOOP SUPPLY MIXER,HW LOOP SUPPLY BRANCH 1,HW LOOP SUPPLY OUTLET BRANCH,HW LOOP,Supply
     Plant Loop Connector Nodes,   1,Mixer,HW LOOP SUPPLY MIXER,NODE 8,HW LOOP SUPPLY OUTLET PIPE NODE,HW LOOP,Supply
 Plant Loop Supply Connection,HW LOOP,NODE 2,NODE 4
 Plant Loop Return Connection,HW LOOP,NODE 5,NODE 1
! ===============================================================
! <# Condenser Loops>,<Number of Condenser Loops>
 #Condenser Loops,0
! <Condenser Loop>,<Condenser Loop Name>,<Loop Type>,<Inlet Node Name>,<Outlet Node Name>,<Branch List>,<Connector List>
! <Condenser Loop Connector>,<Connector Type>,<Connector Name>,<Loop Name>,<Loop Type>,<Number of Inlets/Outlets>
! <Condenser Loop Connector Branches>,<Connector Node Count>,<Connector Type>,<Connector Name>,<Inlet Branch>,<Outlet Branch>,<Loop Name>,<Loop Type>
! <Condenser Loop Connector Nodes>,<Connector Node Count>,<Connector Type>,<Connector Name>,<Inlet Node>,<Outlet Node>,<Loop Name>,<Loop Type>
! <Condenser Loop Supply Connection>,<Condenser Loop Name>,<Supply Side Outlet Node Name>,<Demand Side Inlet Node Name>
! <Condenser Loop Return Connection>,<Condenser Loop Name>,<Demand Side Outlet Node Name>,<Supply Side Inlet Node Name>
! ===============================================================
! <# Controlled Zones>,<Number of Controlled Zones>
 #Controlled Zones,4
! <Controlled Zone>,<Controlled Zone Name>,<Equip List Name>,<Control List Name>,<Zone Node Name>,<# Inlet Nodes>,<# Exhaust Nodes>,<# Return Nodes>
! <Controlled Zone Inlet>,<Inlet Node Count>,<Controlled Zone Name>,<Supply Air Inlet Node Name>,<SD Sys:Cooling/Heating [DD:Cooling] Inlet Node Name>,<DD Sys:Heating Inlet Node Name>
! <Controlled Zone Exhaust>,<Exhaust Node Count>,<Controlled Zone Name>,<Exhaust Air Node Name>
 Controlled Zone,VAV BOX ELECTRIC-1,VAV BOX ELECTRIC-1 EQUIPMENT LIST,,{FA387BA7-D799-4BD4-AC1F-DB3E8CD01E65},1,0,1
   Controlled Zone Inlet,1,VAV BOX ELECTRIC-1,NODE 21,NODE 66,N/A
   Controlled Zone Return,1,VAV BOX ELECTRIC-1,NODE 65
 Controlled Zone,VAV BOX FURNACE-1,VAV BOX FURNACE-1 EQUIPMENT LIST,,{CCA845FA-F278-478E-9B6E-78671904018C},1,0,1
   Controlled Zone Inlet,1,VAV BOX FURNACE-1,NODE 29,NODE 68,N/A
   Controlled Zone Return,1,VAV BOX FURNACE-1,NODE 67
 Controlled Zone,VAV BOX HOT WATER-1,VAV BOX HOT WATER-1 EQUIPMENT LIST,,{A0F44C4C-BFC2-49A6-B32C-8539496BA21C},1,0,1
   Controlled Zone Inlet,1,VAV BOX HOT WATER-1,NODE 42,NODE 64,N/A
   Controlled Zone Return,1,VAV BOX HOT WATER-1,NODE 63
 Controlled Zone,VAV BOX NO REHEAT-1,VAV BOX NO REHEAT-1 EQUIPMENT LIST,,{0D8C41E8-C548-464A-A2B4-C831549EFCBA},2,1,1
   Controlled Zone Inlet,1,VAV BOX NO REHEAT-1,NODE 55,NODE 70,N/A
   Controlled Zone Inlet,2,VAV BOX NO REHEAT-1,NODE 72,Undefined,N/A
   Controlled Zone Exhaust,1,VAV BOX NO REHEAT-1,NODE 71
   Controlled Zone Return,1,VAV BOX NO REHEAT-1,NODE 69
! ===============================================================
! <#Zone Equipment Lists>,<Number of Zone Equipment Lists>
 #Zone Equipment Lists,4
! <Zone Equipment List>,<Zone Equipment List Count>,<Zone Equipment List Name>,<Zone Name>,<Number of Components>
! <Zone Equipment Component>,<Component Count>,<Component Type>,<Component Name>,<Zone Name>,<Heating Priority>,<Cooling Priority>
 Zone Equipment List,1,VAV BOX ELECTRIC-1 EQUIPMENT LIST,VAV BOX ELECTRIC-1,1
   Zone Equipment Component,1,ZONEHVAC:AIRDISTRIBUTIONUNIT,ADU VAV BOX ELECTRIC-1 1,VAV BOX ELECTRIC-1,1,1
 Zone Equipment List,2,VAV BOX FURNACE-1 EQUIPMENT LIST,VAV BOX FURNACE-1,1
   Zone Equipment Component,1,ZONEHVAC:AIRDISTRIBUTIONUNIT,ADU VAV BOX FURNACE-1 1,VAV BOX FURNACE-1,1,1
 Zone Equipment List,3,VAV BOX HOT WATER-1 EQUIPMENT LIST,VAV BOX HOT WATER-1,1
   Zone Equipment Component,1,ZONEHVAC:AIRDISTRIBUTIONUNIT,ADU VAV BOX HOT WATER-1 1,VAV BOX HOT WATER-1,1,1
 Zone Equipment List,4,VAV BOX NO REHEAT-1 EQUIPMENT LIST,VAV BOX NO REHEAT-1,2
   Zone Equipment Component,1,ZONEHVAC:AIRDISTRIBUTIONUNIT,ADU VAV BOX NO REHEAT-1 1,VAV BOX NO REHEAT-1,2,2
   Zone Equipment Component,2,ZONEHVAC:PACKAGEDTERMINALAIRCONDITIONER,PTAC ELEC-1,VAV BOX NO REHEAT-1,1,1
! ===============================================================
! <#AirLoopHVACs>,<Number of AirLoopHVACs>
 #AirLoopHVACs,4
! <AirLoopHVAC>,<Air Loop Name>,<# Return Nodes>,<# Supply Nodes>,<# Zones Cooled>,<# Zones Heated>,<Outdoor Air Used>
! <AirLoop Return Connections>,<Connection Count>,<AirLoopHVAC Name>,<Zn Eqp Return Node #>,<Zn Eqp Return Node Name>,<AirLoop Return Node #>,<Air Loop Return Node Name>
! <AirLoop Supply Connections>,<Connection Count>,<AirLoopHVAC Name>,<Zn Eqp Supply Node #>,<Zn Eqp Supply Node Name>,<AirLoop Supply Node #>,<Air Loop Supply Node Name>
! <Cooled Zone Info>,<Cooled Zone Count>,<Cooled Zone Name>,<Cooled Zone Inlet Node #>,<Cooled Zone Inlet Node Name>,<AirLoopHVAC Name>
! <Heated Zone Info>,<Heated Zone Count>,<Heated Zone Name>,<Heated Zone Inlet Node #>,<Heated Zone Inlet Node Name>,<AirLoopHVAC Name>
! <Outdoor Air Connections>,<OA Inlet Node #>,<OA Return Air Inlet Node Name>,<OA Outlet Node #>,<OA Mixed Air Outlet Node Name>,<AirLoopHVAC Name>
! <AirLoopHVAC Connector>,<Connector Type>,<Connector Name>,<Loop Name>,<Loop Type>,<Number of Inlets/Outlets>
! <AirLoopHVAC Connector Branches>,<Connector Node Count>,<Connector Type>,<Connector Name>,<Inlet Branch>,<Outlet Branch>,<Loop Name>,<Loop Type>
! <AirLoopHVAC Connector Nodes>,<Connector Node Count>,<Connector Type>,<Connector Name>,<Inlet Node>,<Outlet Node>,<Loop Name>,<Loop Type>
 AirLoopHVAC,ALL NONE,1,1,1,0,Yes
   AirLoop Return Connections,1,ALL NONE,69,NODE 20,19,NODE 17
   AirLoop Supply Connections,1,ALL NONE,12,NODE 19,11,NODE 18
   Cooled Zone Info,1,VAV BOX ELECTRIC-1,1,NODE 21,ALL NONE
   Outdoor Air Connections,19,NODE 17,20,NODE 24,ALL NONE
 AirLoopHVAC,DOAS NONEHWCHWHWVV,1,1,1,0,Yes
   AirLoop Return Connections,1,DOAS NONEHWCHWHWVV,70,NODE 54,21,NODE 49
   AirLoop Supply Connections,1,DOAS NONEHWCHWHWVV,14,NODE 53,13,NODE 52
   Cooled Zone Info,1,VAV BOX NO REHEAT-1,7,NODE 55,DOAS NONEHWCHWHWVV
   Outdoor Air Connections,21,NODE 49,22,NODE 60,DOAS NONEHWCHWHWVV
 AirLoopHVAC,ENTHELECACDXELECCV,1,1,1,0,Yes
   AirLoop Return Connections,1,ENTHELECACDXELECCV,71,NODE 28,25,NODE 25
   AirLoop Supply Connections,1,ENTHELECACDXELECCV,16,NODE 27,15,NODE 26
   Cooled Zone Info,1,VAV BOX FURNACE-1,3,NODE 29,ENTHELECACDXELECCV
   Outdoor Air Connections,25,NODE 25,26,NODE 34,ENTHELECACDXELECCV
 AirLoopHVAC,SENSFURNACDXFURNCV,1,1,1,0,Yes
   AirLoop Return Connections,1,SENSFURNACDXFURNCV,72,NODE 41,29,NODE 36
   AirLoop Supply Connections,1,SENSFURNACDXFURNCV,18,NODE 40,17,NODE 39
   Cooled Zone Info,1,VAV BOX HOT WATER-1,5,NODE 42,SENSFURNACDXFURNCV
   Outdoor Air Connections,29,NODE 36,30,NODE 47,SENSFURNACDXFURNCV
! ===============================================================
! <#Parent Node Connections>,<Number of Parent Node Connections>
 #Parent Node Connections,99
! <Parent Node Connection>,<Node Name>,<Node ObjectType>,<Node ObjectName>,<Node ConnectionType>,<Node FluidStream>
 Parent Node Connection,NODE 17,BRANCH,ALL NONE MAIN BRANCH,Inlet,1
 Parent Node Connection,NODE 24,BRANCH,ALL NONE MAIN BRANCH,Internal,1
 Parent Node Connection,NODE 18,BRANCH,ALL NONE MAIN BRANCH,Outlet,1
 Parent Node Connection,NODE 49,BRANCH,DOAS NONEHWCHWHWVV MAIN BRANCH,Inlet,1
 Parent Node Connection,NODE 60,BRANCH,DOAS NONEHWCHWHWVV MAIN BRANCH,Internal,1
 Parent Node Connection,NODE 59,BRANCH,DOAS NONEHWCHWHWVV MAIN BRANCH,Internal,1
 Parent Node Connection,NODE 58,BRANCH,DOAS NONEHWCHWHWVV MAIN BRANCH,Internal,1
 Parent Node Connection,NODE 52,BRANCH,DOAS NONEHWCHWHWVV MAIN BRANCH,Outlet,1
 Parent Node Connection,NODE 25,BRANCH,ENTHELECACDXELECCV MAIN BRANCH,Inlet,1
 Parent Node Connection,NODE 34,BRANCH,ENTHELECACDXELECCV MAIN BRANCH,Internal,1
 Parent Node Connection,NODE 33,BRANCH,ENTHELECACDXELECCV MAIN BRANCH,Internal,1
 Parent Node Connection,NODE 32,BRANCH,ENTHELECACDXELECCV MAIN BRANCH,Internal,1
 Parent Node Connection,NODE 26,BRANCH,ENTHELECACDXELECCV MAIN BRANCH,Outlet,1
 Parent Node Connection,NODE 36,BRANCH,SENSFURNACDXFURNCV MAIN BRANCH,Inlet,1
 Parent Node Connection,NODE 47,BRANCH,SENSFURNACDXFURNCV MAIN BRANCH,Internal,1
 Parent Node Connection,NODE 46,BRANCH,SENSFURNACDXFURNCV MAIN BRANCH,Internal,1
 Parent Node Connection,NODE 45,BRANCH,SENSFURNACDXFURNCV MAIN BRANCH,Internal,1
 Parent Node Connection,NODE 39,BRANCH,SENSFURNACDXFURNCV MAIN BRANCH,Outlet,1
 Parent Node Connection,NODE 9,BRANCH,CHW LOOP SUPPLY INLET BRANCH,Inlet,1
 Parent Node Connection,NODE 15,BRANCH,CHW LOOP SUPPLY INLET BRANCH,Outlet,1
 Parent Node Connection,NODE 11,BRANCH,CHW LOOP SUPPLY BRANCH 1,Inlet,1
 Parent Node Connection,NODE 16,BRANCH,CHW LOOP SUPPLY BRANCH 1,Outlet,1
 Parent Node Connection,CHW LOOP SUPPLY OUTLET PIPE NODE,BRANCH,CHW LOOP SUPPLY OUTLET BRANCH,Inlet,1
 Parent Node Connection,NODE 10,BRANCH,CHW LOOP SUPPLY OUTLET BRANCH,Outlet,1
 Parent Node Connection,NODE 12,BRANCH,CHW LOOP DEMAND INLET BRANCH,Inlet,1
 Parent Node Connection,CHW LOOP DEMAND INLET PIPE NODE,BRANCH,CHW LOOP DEMAND INLET BRANCH,Outlet,1
 Parent Node Connection,NODE 14,BRANCH,CHW LOOP DEMAND BRANCH 1,Inlet,1
 Parent Node Connection,NODE 75,BRANCH,CHW LOOP DEMAND BRANCH 1,Outlet,1
 Parent Node Connection,CHW LOOP DEMAND BYPASS PIPE INLET NODE,BRANCH,CHW LOOP DEMAND BYPASS BRANCH,Inlet,1
 Parent Node Connection,CHW LOOP DEMAND BYPASS PIPE OUTLET NODE,BRANCH,CHW LOOP DEMAND BYPASS BRANCH,Outlet,1
 Parent Node Connection,CHW LOOP DEMAND OUTLET PIPE NODE,BRANCH,CHW LOOP DEMAND OUTLET BRANCH,Inlet,1
 Parent Node Connection,NODE 13,BRANCH,CHW LOOP DEMAND OUTLET BRANCH,Outlet,1
 Parent Node Connection,NODE 1,BRANCH,HW LOOP SUPPLY INLET BRANCH,Inlet,1
 Parent Node Connection,NODE 7,BRANCH,HW LOOP SUPPLY INLET BRANCH,Outlet,1
 Parent Node Connection,NODE 3,BRANCH,HW LOOP SUPPLY BRANCH 1,Inlet,1
 Parent Node Connection,NODE 8,BRANCH,HW LOOP SUPPLY BRANCH 1,Outlet,1
 Parent Node Connection,HW LOOP SUPPLY OUTLET PIPE NODE,BRANCH,HW LOOP SUPPLY OUTLET BRANCH,Inlet,1
 Parent Node Connection,NODE 2,BRANCH,HW LOOP SUPPLY OUTLET BRANCH,Outlet,1
 Parent Node Connection,NODE 4,BRANCH,HW LOOP DEMAND INLET BRANCH,Inlet,1
 Parent Node Connection,HW LOOP DEMAND INLET PIPE NODE,BRANCH,HW LOOP DEMAND INLET BRANCH,Outlet,1
 Parent Node Connection,NODE 6,BRANCH,HW LOOP DEMAND BRANCH 1,Inlet,1
 Parent Node Connection,NODE 62,BRANCH,HW LOOP DEMAND BRANCH 1,Outlet,1
 Parent Node Connection,NODE 73,BRANCH,HW LOOP DEMAND BRANCH 2,Inlet,1
 Parent Node Connection,NODE 74,BRANCH,HW LOOP DEMAND BRANCH 2,Outlet,1
 Parent Node Connection,NODE 76,BRANCH,HW LOOP DEMAND BRANCH 3,Inlet,1
 Parent Node Connection,NODE 77,BRANCH,HW LOOP DEMAND BRANCH 3,Outlet,1
 Parent Node Connection,HW LOOP DEMAND BYPASS PIPE INLET NODE,BRANCH,HW LOOP DEMAND BYPASS BRANCH,Inlet,1
 Parent Node Connection,HW LOOP DEMAND BYPASS PIPE OUTLET NODE,BRANCH,HW LOOP DEMAND BYPASS BRANCH,Outlet,1
 Parent Node Connection,HW LOOP DEMAND OUTLET PIPE NODE,BRANCH,HW LOOP DEMAND OUTLET BRANCH,Inlet,1
 Parent Node Connection,NODE 5,BRANCH,HW LOOP DEMAND OUTLET BRANCH,Outlet,1
 Parent Node Connection,NODE 19,AIRLOOPHVAC:SUPPLYPATH,ALL NONE NODE 19 SUPPLY PATH,Inlet,1
 Parent Node Connection,NODE 53,AIRLOOPHVAC:SUPPLYPATH,DOAS NONEHWCHWHWVV NODE 53 SUPPLY PATH,Inlet,1
 Parent Node Connection,NODE 27,AIRLOOPHVAC:SUPPLYPATH,ENTHELECACDXELECCV NODE 27 SUPPLY PATH,Inlet,1
 Parent Node Connection,NODE 40,AIRLOOPHVAC:SUPPLYPATH,SENSFURNACDXFURNCV NODE 40 SUPPLY PATH,Inlet,1
 Parent Node Connection,NODE 20,AIRLOOPHVAC:RETURNPATH,ALL NONE RETURN PATH,Outlet,1
 Parent Node Connection,NODE 54,AIRLOOPHVAC:RETURNPATH,DOAS NONEHWCHWHWVV RETURN PATH,Outlet,1
 Parent Node Connection,NODE 28,AIRLOOPHVAC:RETURNPATH,ENTHELECACDXELECCV RETURN PATH,Outlet,1
 Parent Node Connection,NODE 41,AIRLOOPHVAC:RETURNPATH,SENSFURNACDXFURNCV RETURN PATH,Outlet,1
 Parent Node Connection,NODE 9,PLANTLOOP,CHW LOOP,Inlet,1
 Parent Node Connection,NODE 10,PLANTLOOP,CHW LOOP,Outlet,1
 Parent Node Connection,NODE 12,PLANTLOOP,CHW LOOP,Inlet,1
 Parent Node Connection,NODE 13,PLANTLOOP,CHW LOOP,Outlet,1
 Parent Node Connection,NODE 10,PLANTLOOP,CHW LOOP,Sensor,1
 Parent Node Connection,NODE 1,PLANTLOOP,HW LOOP,Inlet,1
 Parent Node Connection,NODE 2,PLANTLOOP,HW LOOP,Outlet,1
 Parent Node Connection,NODE 4,PLANTLOOP,HW LOOP,Inlet,1
 Parent Node Connection,NODE 5,PLANTLOOP,HW LOOP,Outlet,1
 Parent Node Connection,NODE 2,PLANTLOOP,HW LOOP,Sensor,1
 Parent Node Connection,NODE 21,ZONEHVAC:AIRDISTRIBUTIONUNIT,ADU VAV BOX ELECTRIC-1 1,Outlet,1
 Parent Node Connection,NODE 29,ZONEHVAC:AIRDISTRIBUTIONUNIT,ADU VAV BOX FURNACE-1 1,Outlet,1
 Parent Node Connection,NODE 42,ZONEHVAC:AIRDISTRIBUTIONUNIT,ADU VAV BOX HOT WATER-1 1,Outlet,1
 Parent Node Connection,NODE 55,ZONEHVAC:AIRDISTRIBUTIONUNIT,ADU VAV BOX NO REHEAT-1 1,Outlet,1
 Parent Node Connection,NODE 21,AIRTERMINAL:SINGLEDUCT:VAV:REHEAT,VAV BOX ELECTRIC-1 1,Outlet,1
 Parent Node Connection,NODE 29,AIRTERMINAL:SINGLEDUCT:VAV:REHEAT,VAV BOX FURNACE-1 1,Outlet,1
 Parent Node Connection,NODE 42,AIRTERMINAL:SINGLEDUCT:VAV:REHEAT,VAV BOX HOT WATER-1 1,Outlet,1
 Parent Node Connection,NODE 71,ZONEHVAC:PACKAGEDTERMINALAIRCONDITIONER,PTAC ELEC-1,Inlet,1
 Parent Node Connection,NODE 72,ZONEHVAC:PACKAGEDTERMINALAIRCONDITIONER,PTAC ELEC-1,Outlet,1
 Parent Node Connection,NODE 17,AIRLOOPHVAC,ALL NONE,Inlet,1
 Parent Node Connection,NODE 20,AIRLOOPHVAC,ALL NONE,Outlet,1
 Parent Node Connection,NODE 19,AIRLOOPHVAC,ALL NONE,Inlet,1
 Parent Node Connection,NODE 18,AIRLOOPHVAC,ALL NONE,Outlet,1
 Parent Node Connection,NODE 49,AIRLOOPHVAC,DOAS NONEHWCHWHWVV,Inlet,1
 Parent Node Connection,NODE 54,AIRLOOPHVAC,DOAS NONEHWCHWHWVV,Outlet,1
 Parent Node Connection,NODE 53,AIRLOOPHVAC,DOAS NONEHWCHWHWVV,Inlet,1
 Parent Node Connection,NODE 52,AIRLOOPHVAC,DOAS NONEHWCHWHWVV,Outlet,1
 Parent Node Connection,NODE 25,AIRLOOPHVAC,ENTHELECACDXELECCV,Inlet,1
 Parent Node Connection,NODE 28,AIRLOOPHVAC,ENTHELECACDXELECCV,Outlet,1
 Parent Node Connection,NODE 27,AIRLOOPHVAC,ENTHELECACDXELECCV,Inlet,1
 Parent Node Connection,NODE 26,AIRLOOPHVAC,ENTHELECACDXELECCV,Outlet,1
 Parent Node Connection,NODE 36,AIRLOOPHVAC,SENSFURNACDXFURNCV,Inlet,1
 Parent Node Connection,NODE 41,AIRLOOPHVAC,SENSFURNACDXFURNCV,Outlet,1
 Parent Node Connection,NODE 40,AIRLOOPHVAC,SENSFURNACDXFURNCV,Inlet,1
 Parent Node Connection,NODE 39,AIRLOOPHVAC,SENSFURNACDXFURNCV,Outlet,1
 Parent Node Connection,NODE 34,COILSYSTEM:COOLING:DX,ENTHELECACDXELECCV COOLING COIL COILSYSTEM,Inlet,1
 Parent Node Connection,NODE 33,COILSYSTEM:COOLING:DX,ENTHELECACDXELECCV COOLING COIL COILSYSTEM,Outlet,1
 Parent Node Connection,NODE 33,COILSYSTEM:COOLING:DX,ENTHELECACDXELECCV COOLING COIL COILSYSTEM,Sensor,1
 Parent Node Connection,NODE 47,COILSYSTEM:COOLING:DX,SENSFURNACDXFURNCV COOLING COIL COILSYSTEM,Inlet,1
 Parent Node Connection,NODE 46,COILSYSTEM:COOLING:DX,SENSFURNACDXFURNCV COOLING COIL COILSYSTEM,Outlet,1
 Parent Node Connection,NODE 46,COILSYSTEM:COOLING:DX,SENSFURNACDXFURNCV COOLING COIL COILSYSTEM,Sensor,1
! ===============================================================
! <#Non-Parent Node Connections>,<Number of Non-Parent Node Connections>
 #Non-Parent Node Connections,240
! <Non-Parent Node Connection>,<Node Name>,<Node ObjectType>,<Node ObjectName>,<Node ConnectionType>,<Node FluidStream>
 Non-Parent Node Connection,{FA387BA7-D799-4BD4-AC1F-DB3E8CD01E65},ZONEHVAC:EQUIPMENTCONNECTIONS,VAV BOX ELECTRIC-1,ZoneNode,1
 Non-Parent Node Connection,NODE 21,ZONEHVAC:EQUIPMENTCONNECTIONS,VAV BOX ELECTRIC-1,ZoneInlet,1
 Non-Parent Node Connection,NODE 65,ZONEHVAC:EQUIPMENTCONNECTIONS,VAV BOX ELECTRIC-1,ZoneReturn,1
 Non-Parent Node Connection,{CCA845FA-F278-478E-9B6E-78671904018C},ZONEHVAC:EQUIPMENTCONNECTIONS,VAV BOX FURNACE-1,ZoneNode,1
 Non-Parent Node Connection,NODE 29,ZONEHVAC:EQUIPMENTCONNECTIONS,VAV BOX FURNACE-1,ZoneInlet,1
 Non-Parent Node Connection,NODE 67,ZONEHVAC:EQUIPMENTCONNECTIONS,VAV BOX FURNACE-1,ZoneReturn,1
 Non-Parent Node Connection,{A0F44C4C-BFC2-49A6-B32C-8539496BA21C},ZONEHVAC:EQUIPMENTCONNECTIONS,VAV BOX HOT WATER-1,ZoneNode,1
 Non-Parent Node Connection,NODE 42,ZONEHVAC:EQUIPMENTCONNECTIONS,VAV BOX HOT WATER-1,ZoneInlet,1
 Non-Parent Node Connection,NODE 63,ZONEHVAC:EQUIPMENTCONNECTIONS,VAV BOX HOT WATER-1,ZoneReturn,1
 Non-Parent Node Connection,{0D8C41E8-C548-464A-A2B4-C831549EFCBA},ZONEHVAC:EQUIPMENTCONNECTIONS,VAV BOX NO REHEAT-1,ZoneNode,1
 Non-Parent Node Connection,NODE 55,ZONEHVAC:EQUIPMENTCONNECTIONS,VAV BOX NO REHEAT-1,ZoneInlet,1
 Non-Parent Node Connection,NODE 72,ZONEHVAC:EQUIPMENTCONNECTIONS,VAV BOX NO REHEAT-1,ZoneInlet,1
 Non-Parent Node Connection,NODE 71,ZONEHVAC:EQUIPMENTCONNECTIONS,VAV BOX NO REHEAT-1,ZoneExhaust,1
 Non-Parent Node Connection,NODE 69,ZONEHVAC:EQUIPMENTCONNECTIONS,VAV BOX NO REHEAT-1,ZoneReturn,1
 Non-Parent Node Connection,PTAC ELEC-1 OA NODE,OUTDOORAIR:NODELIST,OutdoorAir:NodeList,OutdoorAir,1
 Non-Parent Node Connection,NODE 22,OUTDOORAIR:NODELIST,OutdoorAir:NodeList,OutdoorAir,2
 Non-Parent Node Connection,NODE 56,OUTDOORAIR:NODELIST,OutdoorAir:NodeList,OutdoorAir,3
 Non-Parent Node Connection,NODE 30,OUTDOORAIR:NODELIST,OutdoorAir:NodeList,OutdoorAir,4
 Non-Parent Node Connection,NODE 43,OUTDOORAIR:NODELIST,OutdoorAir:NodeList,OutdoorAir,5
 Non-Parent Node Connection,CHW LOOP CHILLER INLET NODE FOR CONDENSER,OUTDOORAIR:NODELIST,OutdoorAir:NodeList,OutdoorAir,6
 Non-Parent Node Connection,MODEL OUTDOOR AIR NODE,OUTDOORAIR:NODE,OutdoorAir:Node,OutdoorAir,7
 Non-Parent Node Connection,NODE 61,SETPOINTMANAGER:SCHEDULED,SETPOINT MANAGER SCHEDULED 3,Setpoint,1
 Non-Parent Node Connection,NODE 52,SETPOINTMANAGER:SCHEDULED,DOAS NONEHWCHWHWVV SETPOINT MANAGER,Setpoint,1
 Non-Parent Node Connection,NODE 35,SETPOINTMANAGER:SCHEDULED,SETPOINT MANAGER SCHEDULED 1,Setpoint,1
 Non-Parent Node Connection,NODE 48,SETPOINTMANAGER:SCHEDULED,SETPOINT MANAGER SCHEDULED 2,Setpoint,1
 Non-Parent Node Connection,NODE 10,SETPOINTMANAGER:SCHEDULED,CHW LOOP SETPOINT MANAGER,Setpoint,1
 Non-Parent Node Connection,NODE 2,SETPOINTMANAGER:SCHEDULED,HW LOOP SETPOINT MANAGER,Setpoint,1
 Non-Parent Node Connection,NODE 18,SETPOINTMANAGER:MIXEDAIR,NODE 24 OS DEFAULT SPM,Sensor,1
 Non-Parent Node Connection,NODE 24,SETPOINTMANAGER:MIXEDAIR,NODE 24 OS DEFAULT SPM,Sensor,1
 Non-Parent Node Connection,NODE 24,SETPOINTMANAGER:MIXEDAIR,NODE 24 OS DEFAULT SPM,Setpoint,1
 Non-Parent Node Connection,NODE 52,SETPOINTMANAGER:MIXEDAIR,NODE 60 OS DEFAULT SPM,Sensor,1
 Non-Parent Node Connection,NODE 58,SETPOINTMANAGER:MIXEDAIR,NODE 60 OS DEFAULT SPM,Sensor,1
 Non-Parent Node Connection,NODE 60,SETPOINTMANAGER:MIXEDAIR,NODE 60 OS DEFAULT SPM,Setpoint,1
 Non-Parent Node Connection,NODE 52,SETPOINTMANAGER:MIXEDAIR,NODE 59 OS DEFAULT SPM,Sensor,1
 Non-Parent Node Connection,NODE 58,SETPOINTMANAGER:MIXEDAIR,NODE 59 OS DEFAULT SPM,Sensor,1
 Non-Parent Node Connection,NODE 59,SETPOINTMANAGER:MIXEDAIR,NODE 59 OS DEFAULT SPM,Setpoint,1
 Non-Parent Node Connection,NODE 52,SETPOINTMANAGER:MIXEDAIR,NODE 58 OS DEFAULT SPM,Sensor,1
 Non-Parent Node Connection,NODE 58,SETPOINTMANAGER:MIXEDAIR,NODE 58 OS DEFAULT SPM,Sensor,1
 Non-Parent Node Connection,NODE 58,SETPOINTMANAGER:MIXEDAIR,NODE 58 OS DEFAULT SPM,Setpoint,1
 Non-Parent Node Connection,NODE 26,SETPOINTMANAGER:MIXEDAIR,NODE 37 OS DEFAULT SPM,Sensor,1
 Non-Parent Node Connection,NODE 32,SETPOINTMANAGER:MIXEDAIR,NODE 37 OS DEFAULT SPM,Sensor,1
 Non-Parent Node Connection,NODE 37,SETPOINTMANAGER:MIXEDAIR,NODE 37 OS DEFAULT SPM,Setpoint,1
 Non-Parent Node Connection,NODE 26,SETPOINTMANAGER:MIXEDAIR,NODE 34 OS DEFAULT SPM,Sensor,1
 Non-Parent Node Connection,NODE 32,SETPOINTMANAGER:MIXEDAIR,NODE 34 OS DEFAULT SPM,Sensor,1
 Non-Parent Node Connection,NODE 34,SETPOINTMANAGER:MIXEDAIR,NODE 34 OS DEFAULT SPM,Setpoint,1
 Non-Parent Node Connection,NODE 26,SETPOINTMANAGER:MIXEDAIR,NODE 33 OS DEFAULT SPM,Sensor,1
 Non-Parent Node Connection,NODE 32,SETPOINTMANAGER:MIXEDAIR,NODE 33 OS DEFAULT SPM,Sensor,1
 Non-Parent Node Connection,NODE 33,SETPOINTMANAGER:MIXEDAIR,NODE 33 OS DEFAULT SPM,Setpoint,1
 Non-Parent Node Connection,NODE 26,SETPOINTMANAGER:MIXEDAIR,NODE 32 OS DEFAULT SPM,Sensor,1
 Non-Parent Node Connection,NODE 32,SETPOINTMANAGER:MIXEDAIR,NODE 32 OS DEFAULT SPM,Sensor,1
 Non-Parent Node Connection,NODE 32,SETPOINTMANAGER:MIXEDAIR,NODE 32 OS DEFAULT SPM,Setpoint,1
 Non-Parent Node Connection,NODE 39,SETPOINTMANAGER:MIXEDAIR,NODE 50 OS DEFAULT SPM,Sensor,1
 Non-Parent Node Connection,NODE 45,SETPOINTMANAGER:MIXEDAIR,NODE 50 OS DEFAULT SPM,Sensor,1
 Non-Parent Node Connection,NODE 50,SETPOINTMANAGER:MIXEDAIR,NODE 50 OS DEFAULT SPM,Setpoint,1
 Non-Parent Node Connection,NODE 39,SETPOINTMANAGER:MIXEDAIR,NODE 47 OS DEFAULT SPM,Sensor,1
 Non-Parent Node Connection,NODE 45,SETPOINTMANAGER:MIXEDAIR,NODE 47 OS DEFAULT SPM,Sensor,1
 Non-Parent Node Connection,NODE 47,SETPOINTMANAGER:MIXEDAIR,NODE 47 OS DEFAULT SPM,Setpoint,1
 Non-Parent Node Connection,NODE 39,SETPOINTMANAGER:MIXEDAIR,NODE 46 OS DEFAULT SPM,Sensor,1
 Non-Parent Node Connection,NODE 45,SETPOINTMANAGER:MIXEDAIR,NODE 46 OS DEFAULT SPM,Sensor,1
 Non-Parent Node Connection,NODE 46,SETPOINTMANAGER:MIXEDAIR,NODE 46 OS DEFAULT SPM,Setpoint,1
 Non-Parent Node Connection,NODE 39,SETPOINTMANAGER:MIXEDAIR,NODE 45 OS DEFAULT SPM,Sensor,1
 Non-Parent Node Connection,NODE 45,SETPOINTMANAGER:MIXEDAIR,NODE 45 OS DEFAULT SPM,Sensor,1
 Non-Parent Node Connection,NODE 45,SETPOINTMANAGER:MIXEDAIR,NODE 45 OS DEFAULT SPM,Setpoint,1
 Non-Parent Node Connection,NODE 18,SETPOINTMANAGER:WARMEST,ALL NONE SETPOINT MANAGER,Setpoint,1
 Non-Parent Node Connection,NODE 26,SETPOINTMANAGER:WARMEST,ENTHELECACDXELECCV SETPOINT MANAGER,Setpoint,1
 Non-Parent Node Connection,NODE 39,SETPOINTMANAGER:WARMEST,SENSFURNACDXFURNCV SETPOINT MANAGER,Setpoint,1
 Non-Parent Node Connection,CHW LOOP SUPPLY OUTLET PIPE NODE,PIPE:ADIABATIC,CHW LOOP SUPPLY OUTLET PIPE,Inlet,1
 Non-Parent Node Connection,NODE 10,PIPE:ADIABATIC,CHW LOOP SUPPLY OUTLET PIPE,Outlet,1
 Non-Parent Node Connection,NODE 12,PIPE:ADIABATIC,CHW LOOP DEMAND INLET PIPE,Inlet,1
 Non-Parent Node Connection,CHW LOOP DEMAND INLET PIPE NODE,PIPE:ADIABATIC,CHW LOOP DEMAND INLET PIPE,Outlet,1
 Non-Parent Node Connection,CHW LOOP DEMAND BYPASS PIPE INLET NODE,PIPE:ADIABATIC,CHW LOOP DEMAND BYPASS PIPE,Inlet,1
 Non-Parent Node Connection,CHW LOOP DEMAND BYPASS PIPE OUTLET NODE,PIPE:ADIABATIC,CHW LOOP DEMAND BYPASS PIPE,Outlet,1
 Non-Parent Node Connection,CHW LOOP DEMAND OUTLET PIPE NODE,PIPE:ADIABATIC,CHW LOOP DEMAND OUTLET PIPE,Inlet,1
 Non-Parent Node Connection,NODE 13,PIPE:ADIABATIC,CHW LOOP DEMAND OUTLET PIPE,Outlet,1
 Non-Parent Node Connection,HW LOOP SUPPLY OUTLET PIPE NODE,PIPE:ADIABATIC,HW LOOP SUPPLY OUTLET PIPE,Inlet,1
 Non-Parent Node Connection,NODE 2,PIPE:ADIABATIC,HW LOOP SUPPLY OUTLET PIPE,Outlet,1
 Non-Parent Node Connection,NODE 4,PIPE:ADIABATIC,HW LOOP DEMAND INLET PIPE,Inlet,1
 Non-Parent Node Connection,HW LOOP DEMAND INLET PIPE NODE,PIPE:ADIABATIC,HW LOOP DEMAND INLET PIPE,Outlet,1
 Non-Parent Node Connection,HW LOOP DEMAND BYPASS PIPE INLET NODE,PIPE:ADIABATIC,HW LOOP DEMAND BYPASS PIPE,Inlet,1
 Non-Parent Node Connection,HW LOOP DEMAND BYPASS PIPE OUTLET NODE,PIPE:ADIABATIC,HW LOOP DEMAND BYPASS PIPE,Outlet,1
 Non-Parent Node Connection,HW LOOP DEMAND OUTLET PIPE NODE,PIPE:ADIABATIC,HW LOOP DEMAND OUTLET PIPE,Inlet,1
 Non-Parent Node Connection,NODE 5,PIPE:ADIABATIC,HW LOOP DEMAND OUTLET PIPE,Outlet,1
 Non-Parent Node Connection,CHW LOOP DEMAND INLET PIPE NODE,CONNECTOR:SPLITTER,CHW LOOP DEMAND SPLITTER,Inlet,1
 Non-Parent Node Connection,NODE 14,CONNECTOR:SPLITTER,CHW LOOP DEMAND SPLITTER,Outlet,1
 Non-Parent Node Connection,CHW LOOP DEMAND BYPASS PIPE INLET NODE,CONNECTOR:SPLITTER,CHW LOOP DEMAND SPLITTER,Outlet,1
 Non-Parent Node Connection,CHW LOOP DEMAND OUTLET PIPE NODE,CONNECTOR:MIXER,CHW LOOP DEMAND MIXER,Outlet,1
 Non-Parent Node Connection,NODE 75,CONNECTOR:MIXER,CHW LOOP DEMAND MIXER,Inlet,1
 Non-Parent Node Connection,CHW LOOP DEMAND BYPASS PIPE OUTLET NODE,CONNECTOR:MIXER,CHW LOOP DEMAND MIXER,Inlet,1
 Non-Parent Node Connection,NODE 15,CONNECTOR:SPLITTER,CHW LOOP SUPPLY SPLITTER,Inlet,1
 Non-Parent Node Connection,NODE 11,CONNECTOR:SPLITTER,CHW LOOP SUPPLY SPLITTER,Outlet,1
 Non-Parent Node Connection,CHW LOOP SUPPLY OUTLET PIPE NODE,CONNECTOR:MIXER,CHW LOOP SUPPLY MIXER,Outlet,1
 Non-Parent Node Connection,NODE 16,CONNECTOR:MIXER,CHW LOOP SUPPLY MIXER,Inlet,1
 Non-Parent Node Connection,HW LOOP DEMAND INLET PIPE NODE,CONNECTOR:SPLITTER,HW LOOP DEMAND SPLITTER,Inlet,1
 Non-Parent Node Connection,NODE 6,CONNECTOR:SPLITTER,HW LOOP DEMAND SPLITTER,Outlet,1
 Non-Parent Node Connection,NODE 73,CONNECTOR:SPLITTER,HW LOOP DEMAND SPLITTER,Outlet,1
 Non-Parent Node Connection,NODE 76,CONNECTOR:SPLITTER,HW LOOP DEMAND SPLITTER,Outlet,1
 Non-Parent Node Connection,HW LOOP DEMAND BYPASS PIPE INLET NODE,CONNECTOR:SPLITTER,HW LOOP DEMAND SPLITTER,Outlet,1
 Non-Parent Node Connection,HW LOOP DEMAND OUTLET PIPE NODE,CONNECTOR:MIXER,HW LOOP DEMAND MIXER,Outlet,1
 Non-Parent Node Connection,NODE 62,CONNECTOR:MIXER,HW LOOP DEMAND MIXER,Inlet,1
 Non-Parent Node Connection,NODE 74,CONNECTOR:MIXER,HW LOOP DEMAND MIXER,Inlet,1
 Non-Parent Node Connection,NODE 77,CONNECTOR:MIXER,HW LOOP DEMAND MIXER,Inlet,1
 Non-Parent Node Connection,HW LOOP DEMAND BYPASS PIPE OUTLET NODE,CONNECTOR:MIXER,HW LOOP DEMAND MIXER,Inlet,1
 Non-Parent Node Connection,NODE 7,CONNECTOR:SPLITTER,HW LOOP SUPPLY SPLITTER,Inlet,1
 Non-Parent Node Connection,NODE 3,CONNECTOR:SPLITTER,HW LOOP SUPPLY SPLITTER,Outlet,1
 Non-Parent Node Connection,HW LOOP SUPPLY OUTLET PIPE NODE,CONNECTOR:MIXER,HW LOOP SUPPLY MIXER,Outlet,1
 Non-Parent Node Connection,NODE 8,CONNECTOR:MIXER,HW LOOP SUPPLY MIXER,Inlet,1
 Non-Parent Node Connection,NODE 19,AIRLOOPHVAC:ZONESPLITTER,AIR LOOP HVAC ZONE SPLITTER 1,Inlet,1
 Non-Parent Node Connection,NODE 66,AIRLOOPHVAC:ZONESPLITTER,AIR LOOP HVAC ZONE SPLITTER 1,Outlet,1
 Non-Parent Node Connection,NODE 53,AIRLOOPHVAC:ZONESPLITTER,AIR LOOP HVAC ZONE SPLITTER 4,Inlet,1
 Non-Parent Node Connection,NODE 70,AIRLOOPHVAC:ZONESPLITTER,AIR LOOP HVAC ZONE SPLITTER 4,Outlet,1
 Non-Parent Node Connection,NODE 27,AIRLOOPHVAC:ZONESPLITTER,AIR LOOP HVAC ZONE SPLITTER 2,Inlet,1
 Non-Parent Node Connection,NODE 68,AIRLOOPHVAC:ZONESPLITTER,AIR LOOP HVAC ZONE SPLITTER 2,Outlet,1
 Non-Parent Node Connection,NODE 40,AIRLOOPHVAC:ZONESPLITTER,AIR LOOP HVAC ZONE SPLITTER 3,Inlet,1
 Non-Parent Node Connection,NODE 64,AIRLOOPHVAC:ZONESPLITTER,AIR LOOP HVAC ZONE SPLITTER 3,Outlet,1
 Non-Parent Node Connection,VAV BOX ELECTRIC-1 1 DAMPER OUTLET,AIRTERMINAL:SINGLEDUCT:VAV:REHEAT,VAV BOX ELECTRIC-1 1,Outlet,1
 Non-Parent Node Connection,NODE 66,AIRTERMINAL:SINGLEDUCT:VAV:REHEAT,VAV BOX ELECTRIC-1 1,Inlet,1
 Non-Parent Node Connection,VAV BOX FURNACE-1 1 DAMPER OUTLET,AIRTERMINAL:SINGLEDUCT:VAV:REHEAT,VAV BOX FURNACE-1 1,Outlet,1
 Non-Parent Node Connection,NODE 68,AIRTERMINAL:SINGLEDUCT:VAV:REHEAT,VAV BOX FURNACE-1 1,Inlet,1
 Non-Parent Node Connection,VAV BOX HOT WATER-1 1 DAMPER OUTLET,AIRTERMINAL:SINGLEDUCT:VAV:REHEAT,VAV BOX HOT WATER-1 1,Outlet,1
 Non-Parent Node Connection,NODE 64,AIRTERMINAL:SINGLEDUCT:VAV:REHEAT,VAV BOX HOT WATER-1 1,Inlet,1
 Non-Parent Node Connection,NODE 6,COIL:HEATING:WATER,VAV BOX HOT WATER-1 HEATING COIL,Inlet,2
 Non-Parent Node Connection,NODE 62,COIL:HEATING:WATER,VAV BOX HOT WATER-1 HEATING COIL,Outlet,2
 Non-Parent Node Connection,VAV BOX HOT WATER-1 1 DAMPER OUTLET,COIL:HEATING:WATER,VAV BOX HOT WATER-1 HEATING COIL,Inlet,1
 Non-Parent Node Connection,NODE 42,COIL:HEATING:WATER,VAV BOX HOT WATER-1 HEATING COIL,Outlet,1
 Non-Parent Node Connection,NODE 73,COIL:HEATING:WATER,DOAS NONEHWCHWHWVV PREHEAT COIL,Inlet,2
 Non-Parent Node Connection,NODE 74,COIL:HEATING:WATER,DOAS NONEHWCHWHWVV PREHEAT COIL,Outlet,2
 Non-Parent Node Connection,NODE 56,COIL:HEATING:WATER,DOAS NONEHWCHWHWVV PREHEAT COIL,Inlet,1
 Non-Parent Node Connection,NODE 61,COIL:HEATING:WATER,DOAS NONEHWCHWHWVV PREHEAT COIL,Outlet,1
 Non-Parent Node Connection,NODE 76,COIL:HEATING:WATER,DOAS NONEHWCHWHWVV HEATING COIL,Inlet,2
 Non-Parent Node Connection,NODE 77,COIL:HEATING:WATER,DOAS NONEHWCHWHWVV HEATING COIL,Outlet,2
 Non-Parent Node Connection,NODE 59,COIL:HEATING:WATER,DOAS NONEHWCHWHWVV HEATING COIL,Inlet,1
 Non-Parent Node Connection,NODE 58,COIL:HEATING:WATER,DOAS NONEHWCHWHWVV HEATING COIL,Outlet,1
 Non-Parent Node Connection,NODE 14,COIL:COOLING:WATER,DOAS NONEHWCHWHWVV COOLING COIL,Inlet,2
 Non-Parent Node Connection,NODE 75,COIL:COOLING:WATER,DOAS NONEHWCHWHWVV COOLING COIL,Outlet,2
 Non-Parent Node Connection,NODE 60,COIL:COOLING:WATER,DOAS NONEHWCHWHWVV COOLING COIL,Inlet,1
 Non-Parent Node Connection,NODE 59,COIL:COOLING:WATER,DOAS NONEHWCHWHWVV COOLING COIL,Outlet,1
 Non-Parent Node Connection,NODE 55,AIRTERMINAL:SINGLEDUCT:VAV:NOREHEAT,VAV BOX NO REHEAT-1 1,Outlet,1
 Non-Parent Node Connection,NODE 70,AIRTERMINAL:SINGLEDUCT:VAV:NOREHEAT,VAV BOX NO REHEAT-1 1,Inlet,1
 Non-Parent Node Connection,VAV BOX ELECTRIC-1 1 DAMPER OUTLET,COIL:HEATING:ELECTRIC,VAV BOX ELECTRIC-1 HEATING COIL,Inlet,1
 Non-Parent Node Connection,NODE 21,COIL:HEATING:ELECTRIC,VAV BOX ELECTRIC-1 HEATING COIL,Outlet,1
 Non-Parent Node Connection,PTAC ELEC-1 COOLING COIL OUTLET NODE,COIL:HEATING:ELECTRIC,PTAC ELEC-1 HEATING COIL,Inlet,1
 Non-Parent Node Connection,PTAC ELEC-1 HEATING COIL OUTLET NODE,COIL:HEATING:ELECTRIC,PTAC ELEC-1 HEATING COIL,Outlet,1
 Non-Parent Node Connection,NODE 30,COIL:HEATING:ELECTRIC,ENTHELECACDXELECCV PREHEAT COIL,Inlet,1
 Non-Parent Node Connection,NODE 35,COIL:HEATING:ELECTRIC,ENTHELECACDXELECCV PREHEAT COIL,Outlet,1
 Non-Parent Node Connection,NODE 35,COIL:HEATING:ELECTRIC,ENTHELECACDXELECCV PREHEAT COIL,Sensor,1
 Non-Parent Node Connection,NODE 33,COIL:HEATING:ELECTRIC,ENTHELECACDXELECCV HEATING COIL,Inlet,1
 Non-Parent Node Connection,NODE 32,COIL:HEATING:ELECTRIC,ENTHELECACDXELECCV HEATING COIL,Outlet,1
 Non-Parent Node Connection,NODE 32,COIL:HEATING:ELECTRIC,ENTHELECACDXELECCV HEATING COIL,Sensor,1
 Non-Parent Node Connection,VAV BOX FURNACE-1 1 DAMPER OUTLET,COIL:HEATING:FUEL,VAV BOX FURNACE-1 HEATING COIL,Inlet,1
 Non-Parent Node Connection,NODE 29,COIL:HEATING:FUEL,VAV BOX FURNACE-1 HEATING COIL,Outlet,1
 Non-Parent Node Connection,NODE 43,COIL:HEATING:FUEL,SENSFURNACDXFURNCV PREHEAT COIL,Inlet,1
 Non-Parent Node Connection,NODE 48,COIL:HEATING:FUEL,SENSFURNACDXFURNCV PREHEAT COIL,Outlet,1
 Non-Parent Node Connection,NODE 48,COIL:HEATING:FUEL,SENSFURNACDXFURNCV PREHEAT COIL,Sensor,1
 Non-Parent Node Connection,NODE 46,COIL:HEATING:FUEL,SENSFURNACDXFURNCV HEATING COIL,Inlet,1
 Non-Parent Node Connection,NODE 45,COIL:HEATING:FUEL,SENSFURNACDXFURNCV HEATING COIL,Outlet,1
 Non-Parent Node Connection,NODE 45,COIL:HEATING:FUEL,SENSFURNACDXFURNCV HEATING COIL,Sensor,1
 Non-Parent Node Connection,NODE 59,CONTROLLER:WATERCOIL,CONTROLLER WATER COIL 2,Sensor,1
 Non-Parent Node Connection,NODE 14,CONTROLLER:WATERCOIL,CONTROLLER WATER COIL 2,Actuator,1
 Non-Parent Node Connection,NODE 58,CONTROLLER:WATERCOIL,CONTROLLER WATER COIL 3,Sensor,1
 Non-Parent Node Connection,NODE 76,CONTROLLER:WATERCOIL,CONTROLLER WATER COIL 3,Actuator,1
 Non-Parent Node Connection,NODE 61,CONTROLLER:WATERCOIL,CONTROLLER WATER COIL 1,Sensor,1
 Non-Parent Node Connection,NODE 73,CONTROLLER:WATERCOIL,CONTROLLER WATER COIL 1,Actuator,1
 Non-Parent Node Connection,PTAC ELEC-1 MIXED AIR NODE,OUTDOORAIR:MIXER,PTAC ELEC-1 OA MIXER,Outlet,1
 Non-Parent Node Connection,PTAC ELEC-1 OA NODE,OUTDOORAIR:MIXER,PTAC ELEC-1 OA MIXER,Inlet,1
 Non-Parent Node Connection,PTAC ELEC-1 RELIEF AIR NODE,OUTDOORAIR:MIXER,PTAC ELEC-1 OA MIXER,ReliefAir,1
 Non-Parent Node Connection,NODE 71,OUTDOORAIR:MIXER,PTAC ELEC-1 OA MIXER,Inlet,1
 Non-Parent Node Connection,NODE 24,OUTDOORAIR:MIXER,ALL NONE OUTDOOR AIR SYSTEM OUTDOOR AIR MIXER,Outlet,1
 Non-Parent Node Connection,NODE 22,OUTDOORAIR:MIXER,ALL NONE OUTDOOR AIR SYSTEM OUTDOOR AIR MIXER,Inlet,1
 Non-Parent Node Connection,NODE 23,OUTDOORAIR:MIXER,ALL NONE OUTDOOR AIR SYSTEM OUTDOOR AIR MIXER,ReliefAir,1
 Non-Parent Node Connection,NODE 17,OUTDOORAIR:MIXER,ALL NONE OUTDOOR AIR SYSTEM OUTDOOR AIR MIXER,Inlet,1
 Non-Parent Node Connection,NODE 60,OUTDOORAIR:MIXER,DOAS NONEHWCHWHWVV OUTDOOR AIR SYSTEM OUTDOOR AIR MIXER,Outlet,1
 Non-Parent Node Connection,NODE 61,OUTDOORAIR:MIXER,DOAS NONEHWCHWHWVV OUTDOOR AIR SYSTEM OUTDOOR AIR MIXER,Inlet,1
 Non-Parent Node Connection,NODE 57,OUTDOORAIR:MIXER,DOAS NONEHWCHWHWVV OUTDOOR AIR SYSTEM OUTDOOR AIR MIXER,ReliefAir,1
 Non-Parent Node Connection,NODE 49,OUTDOORAIR:MIXER,DOAS NONEHWCHWHWVV OUTDOOR AIR SYSTEM OUTDOOR AIR MIXER,Inlet,1
 Non-Parent Node Connection,NODE 34,OUTDOORAIR:MIXER,ENTHELECACDXELECCV OUTDOOR AIR SYSTEM OUTDOOR AIR MIXER,Outlet,1
 Non-Parent Node Connection,NODE 37,OUTDOORAIR:MIXER,ENTHELECACDXELECCV OUTDOOR AIR SYSTEM OUTDOOR AIR MIXER,Inlet,1
 Non-Parent Node Connection,NODE 38,OUTDOORAIR:MIXER,ENTHELECACDXELECCV OUTDOOR AIR SYSTEM OUTDOOR AIR MIXER,ReliefAir,1
 Non-Parent Node Connection,NODE 25,OUTDOORAIR:MIXER,ENTHELECACDXELECCV OUTDOOR AIR SYSTEM OUTDOOR AIR MIXER,Inlet,1
 Non-Parent Node Connection,NODE 47,OUTDOORAIR:MIXER,SENSFURNACDXFURNCV OUTDOOR AIR SYSTEM OUTDOOR AIR MIXER,Outlet,1
 Non-Parent Node Connection,NODE 50,OUTDOORAIR:MIXER,SENSFURNACDXFURNCV OUTDOOR AIR SYSTEM OUTDOOR AIR MIXER,Inlet,1
 Non-Parent Node Connection,NODE 51,OUTDOORAIR:MIXER,SENSFURNACDXFURNCV OUTDOOR AIR SYSTEM OUTDOOR AIR MIXER,ReliefAir,1
 Non-Parent Node Connection,NODE 36,OUTDOORAIR:MIXER,SENSFURNACDXFURNCV OUTDOOR AIR SYSTEM OUTDOOR AIR MIXER,Inlet,1
 Non-Parent Node Connection,PTAC ELEC-1 HEATING COIL OUTLET NODE,FAN:CONSTANTVOLUME,PTAC ELEC-1 + FAN,Inlet,1
 Non-Parent Node Connection,NODE 72,FAN:CONSTANTVOLUME,PTAC ELEC-1 + FAN,Outlet,1
 Non-Parent Node Connection,NODE 24,FAN:VARIABLEVOLUME,ALL NONE SUPPLY FAN,Inlet,1
 Non-Parent Node Connection,NODE 18,FAN:VARIABLEVOLUME,ALL NONE SUPPLY FAN,Outlet,1
 Non-Parent Node Connection,NODE 58,FAN:VARIABLEVOLUME,DOAS NONEHWCHWHWVV SUPPLY FAN,Inlet,1
 Non-Parent Node Connection,NODE 52,FAN:VARIABLEVOLUME,DOAS NONEHWCHWHWVV SUPPLY FAN,Outlet,1
 Non-Parent Node Connection,NODE 32,FAN:VARIABLEVOLUME,ENTHELECACDXELECCV SUPPLY FAN,Inlet,1
 Non-Parent Node Connection,NODE 26,FAN:VARIABLEVOLUME,ENTHELECACDXELECCV SUPPLY FAN,Outlet,1
 Non-Parent Node Connection,NODE 45,FAN:VARIABLEVOLUME,SENSFURNACDXFURNCV SUPPLY FAN,Inlet,1
 Non-Parent Node Connection,NODE 39,FAN:VARIABLEVOLUME,SENSFURNACDXFURNCV SUPPLY FAN,Outlet,1
 Non-Parent Node Connection,PTAC ELEC-1 MIXED AIR NODE,COIL:COOLING:DX:SINGLESPEED,PTAC ELEC-1 + COOLING COIL,Inlet,1
 Non-Parent Node Connection,PTAC ELEC-1 COOLING COIL OUTLET NODE,COIL:COOLING:DX:SINGLESPEED,PTAC ELEC-1 + COOLING COIL,Outlet,1
 Non-Parent Node Connection,NODE 34,COIL:COOLING:DX:SINGLESPEED,ENTHELECACDXELECCV COOLING COIL,Inlet,1
 Non-Parent Node Connection,NODE 33,COIL:COOLING:DX:SINGLESPEED,ENTHELECACDXELECCV COOLING COIL,Outlet,1
 Non-Parent Node Connection,NODE 47,COIL:COOLING:DX:SINGLESPEED,SENSFURNACDXFURNCV COOLING COIL,Inlet,1
 Non-Parent Node Connection,NODE 46,COIL:COOLING:DX:SINGLESPEED,SENSFURNACDXFURNCV COOLING COIL,Outlet,1
 Non-Parent Node Connection,NODE 20,AIRLOOPHVAC:ZONEMIXER,AIR LOOP HVAC ZONE MIXER 1,Outlet,1
 Non-Parent Node Connection,NODE 65,AIRLOOPHVAC:ZONEMIXER,AIR LOOP HVAC ZONE MIXER 1,Inlet,1
 Non-Parent Node Connection,NODE 54,AIRLOOPHVAC:ZONEMIXER,AIR LOOP HVAC ZONE MIXER 4,Outlet,1
 Non-Parent Node Connection,NODE 69,AIRLOOPHVAC:ZONEMIXER,AIR LOOP HVAC ZONE MIXER 4,Inlet,1
 Non-Parent Node Connection,NODE 28,AIRLOOPHVAC:ZONEMIXER,AIR LOOP HVAC ZONE MIXER 2,Outlet,1
 Non-Parent Node Connection,NODE 67,AIRLOOPHVAC:ZONEMIXER,AIR LOOP HVAC ZONE MIXER 2,Inlet,1
 Non-Parent Node Connection,NODE 41,AIRLOOPHVAC:ZONEMIXER,AIR LOOP HVAC ZONE MIXER 3,Outlet,1
 Non-Parent Node Connection,NODE 63,AIRLOOPHVAC:ZONEMIXER,AIR LOOP HVAC ZONE MIXER 3,Inlet,1
 Non-Parent Node Connection,NODE 24,CONTROLLER:OUTDOORAIR,ALL NONE CONTROLLER OUTDOOR AIR,Sensor,1
 Non-Parent Node Connection,NODE 22,CONTROLLER:OUTDOORAIR,ALL NONE CONTROLLER OUTDOOR AIR,Actuator,1
 Non-Parent Node Connection,NODE 23,CONTROLLER:OUTDOORAIR,ALL NONE CONTROLLER OUTDOOR AIR,Actuator,1
 Non-Parent Node Connection,NODE 17,CONTROLLER:OUTDOORAIR,ALL NONE CONTROLLER OUTDOOR AIR,Sensor,1
 Non-Parent Node Connection,NODE 60,CONTROLLER:OUTDOORAIR,DOAS NONEHWCHWHWVV CONTROLLER OUTDOOR AIR,Sensor,1
 Non-Parent Node Connection,NODE 56,CONTROLLER:OUTDOORAIR,DOAS NONEHWCHWHWVV CONTROLLER OUTDOOR AIR,Actuator,1
 Non-Parent Node Connection,NODE 57,CONTROLLER:OUTDOORAIR,DOAS NONEHWCHWHWVV CONTROLLER OUTDOOR AIR,Actuator,1
 Non-Parent Node Connection,NODE 49,CONTROLLER:OUTDOORAIR,DOAS NONEHWCHWHWVV CONTROLLER OUTDOOR AIR,Sensor,1
 Non-Parent Node Connection,NODE 34,CONTROLLER:OUTDOORAIR,ENTHELECACDXELECCV CONTROLLER OUTDOOR AIR,Sensor,1
 Non-Parent Node Connection,NODE 30,CONTROLLER:OUTDOORAIR,ENTHELECACDXELECCV CONTROLLER OUTDOOR AIR,Actuator,1
 Non-Parent Node Connection,NODE 38,CONTROLLER:OUTDOORAIR,ENTHELECACDXELECCV CONTROLLER OUTDOOR AIR,Actuator,1
 Non-Parent Node Connection,NODE 25,CONTROLLER:OUTDOORAIR,ENTHELECACDXELECCV CONTROLLER OUTDOOR AIR,Sensor,1
 Non-Parent Node Connection,NODE 47,CONTROLLER:OUTDOORAIR,SENSFURNACDXFURNCV CONTROLLER OUTDOOR AIR,Sensor,1
 Non-Parent Node Connection,NODE 43,CONTROLLER:OUTDOORAIR,SENSFURNACDXFURNCV CONTROLLER OUTDOOR AIR,Actuator,1
 Non-Parent Node Connection,NODE 51,CONTROLLER:OUTDOORAIR,SENSFURNACDXFURNCV CONTROLLER OUTDOOR AIR,Actuator,1
 Non-Parent Node Connection,NODE 36,CONTROLLER:OUTDOORAIR,SENSFURNACDXFURNCV CONTROLLER OUTDOOR AIR,Sensor,1
 Non-Parent Node Connection,NODE 35,HEATEXCHANGER:AIRTOAIR:SENSIBLEANDLATENT,ENTHELECACDXELECCV HEAT EXCHANGER,Inlet,1
 Non-Parent Node Connection,NODE 37,HEATEXCHANGER:AIRTOAIR:SENSIBLEANDLATENT,ENTHELECACDXELECCV HEAT EXCHANGER,Outlet,1
 Non-Parent Node Connection,NODE 38,HEATEXCHANGER:AIRTOAIR:SENSIBLEANDLATENT,ENTHELECACDXELECCV HEAT EXCHANGER,Inlet,2
 Non-Parent Node Connection,NODE 31,HEATEXCHANGER:AIRTOAIR:SENSIBLEANDLATENT,ENTHELECACDXELECCV HEAT EXCHANGER,Outlet,2
 Non-Parent Node Connection,NODE 48,HEATEXCHANGER:AIRTOAIR:SENSIBLEANDLATENT,SENSFURNACDXFURNCV HEAT EXCHANGER,Inlet,1
 Non-Parent Node Connection,NODE 50,HEATEXCHANGER:AIRTOAIR:SENSIBLEANDLATENT,SENSFURNACDXFURNCV HEAT EXCHANGER,Outlet,1
 Non-Parent Node Connection,NODE 51,HEATEXCHANGER:AIRTOAIR:SENSIBLEANDLATENT,SENSFURNACDXFURNCV HEAT EXCHANGER,Inlet,2
 Non-Parent Node Connection,NODE 44,HEATEXCHANGER:AIRTOAIR:SENSIBLEANDLATENT,SENSFURNACDXFURNCV HEAT EXCHANGER,Outlet,2
 Non-Parent Node Connection,NODE 11,CHILLER:ELECTRIC:EIR,CHW LOOP CHILLER,Inlet,1
 Non-Parent Node Connection,NODE 16,CHILLER:ELECTRIC:EIR,CHW LOOP CHILLER,Outlet,1
 Non-Parent Node Connection,CHW LOOP CHILLER INLET NODE FOR CONDENSER,CHILLER:ELECTRIC:EIR,CHW LOOP CHILLER,OutsideAirReference,2
 Non-Parent Node Connection,CHW LOOP CHILLER OUTLET NODE FOR CONDENSER,CHILLER:ELECTRIC:EIR,CHW LOOP CHILLER,Outlet,2
 Non-Parent Node Connection,NODE 3,BOILER:HOTWATER,HW LOOP BOILER,Inlet,1
 Non-Parent Node Connection,NODE 8,BOILER:HOTWATER,HW LOOP BOILER,Outlet,1
 Non-Parent Node Connection,NODE 9,PUMP:VARIABLESPEED,CHW LOOP PUMP,Inlet,1
 Non-Parent Node Connection,NODE 15,PUMP:VARIABLESPEED,CHW LOOP PUMP,Outlet,1
 Non-Parent Node Connection,NODE 1,PUMP:VARIABLESPEED,HW LOOP PUMP,Inlet,1
 Non-Parent Node Connection,NODE 7,PUMP:VARIABLESPEED,HW LOOP PUMP,Outlet,1
